# File generated by Flopy version 3.4.2 on 09/12/2023 at 13:55:23.
BEGIN options
END options

BEGIN dimensions
  MAXBOUND  2
END dimensions

BEGIN period  1
  1 11 10  -75000.00000000
END period  1

BEGIN period  2
  1 11 10  -75000.00000000
  3 13 5  -100000.00000000
END period  2

BEGIN period  3
  1 11 10  -75000.00000000
  3 13 5  -100000.00000000
END period  3

