# File generated by Flopy version 3.4.2 on 09/12/2023 at 13:55:23.
BEGIN Options
  LIST  ps2.lst
END Options

BEGIN Packages
  sto6  ps2.sto  sto
  drn6  ps2.drn  drn_0
  riv6  ps2.riv  riv_0
  rch6  ps2.rcha  rcha_0
  oc6  ps2.oc
  npf6  ps2.npf
  ic6  ps2.ic
  dis6  ps2.dis
  wel6  ps2.wel  wel_0
END Packages

