# File generated by Flopy version 3.4.2 on 09/12/2023 at 13:55:23.
BEGIN OPTIONS
  TIME_UNITS  days
END OPTIONS

BEGIN DIMENSIONS
  NPER  3
END DIMENSIONS

BEGIN PERIODDATA
       1.00000000  1       1.00000000
   36500.00000000  10       1.50000000
       1.00000000  1       1.00000000
END PERIODDATA

