# File generated by Flopy version 3.4.2 on 09/12/2023 at 13:55:18.
BEGIN OPTIONS
  LENGTH_UNITS  feet
  XORIGIN       0.00000000
  YORIGIN       0.00000000
  ANGROT       0.00000000
END OPTIONS

BEGIN DIMENSIONS
  NLAY  3
  NROW  21
  NCOL  20
END DIMENSIONS

BEGIN GRIDDATA
  delr
    CONSTANT     500.00000000
  delc
    CONSTANT     500.00000000
  top
    CONSTANT     400.00000000
  botm  LAYERED
    CONSTANT     220.00000000
    CONSTANT     200.00000000
    CONSTANT       0.00000000
  idomain  LAYERED
    CONSTANT  1
    CONSTANT  1
    CONSTANT  1
END GRIDDATA

