# File generated by Flopy version 3.4.2 on 09/12/2023 at 13:55:18.
BEGIN OPTIONS
  TIME_UNITS  days
END OPTIONS

BEGIN DIMENSIONS
  NPER  3
END DIMENSIONS

BEGIN PERIODDATA
  3.00000000E+05  1       1.00000000
   36500.00000000  10       1.50000000
  3.00000000E+05  1       1.00000000
END PERIODDATA

