#The OPTIONS block is optional
BEGIN OPTIONS
  LENGTH_UNITS FEET
END OPTIONS

#The DIMENSIONS block is required
BEGIN DIMENSIONS
NLAY 3
NROW 21
NCOL 20
END DIMENSIONS

#The GRIDDATA block is required
BEGIN GRIDDATA
DELR
  constant 500.
DELC
  CONSTANT 500.
TOP
  CONSTANT 400.
BOTM LAYERED
  CONSTANT 220.0
  CONSTANT 200.0
  CONSTANT 0.0
END GRIDDATA