BEGIN OPTIONS
END OPTIONS

BEGIN PERIOD 1
  PRINT HEAD ALL
  PRINT BUDGET ALL
END PERIOD
#