BEGIN OPTIONS
PRINT_OPTION ALL
COMPLEXITY SIMPLE
END OPTIONS

BEGIN NONLINEAR
END NONLINEAR

begin linear
end linear