BEGIN OPTIONS
END OPTIONS

BEGIN DIMENSIONS
  MAXBOUND 1
END DIMENSIONS

BEGIN PERIOD 1
1 23 20 2 250000000
END PERIOD