begin options
  PRINT_INPUT
  PRINT_FLOWS
  SAVE_FLOWS
end options

begin dimensions
  MAXBOUND 105
end dimensions

begin period 1
     2         4         4        9.38  555000.  
     2         4         5        9.38  555000.  
     2         4         6        9.38  555000.  
     2         4         7        9.38  555000.  
     2         5         3        9.38  555000.  
     2         5         4        9.38  555000.  
     2         5         5        9.38  555000.  
     2         5         6        9.38  555000.  
     2         5         7        9.38  555000.  
     2         6         3        9.38  555000.  
     2         6         4        9.38  555000.  
     2         6         5        9.38  555000.  
     2         6         6        9.38  555000.  
     2         6         7        9.38  555000.  
     2         7         3        9.38  555000.  
     2         7         4        9.38  555000.  
     2         7         5        9.38  555000.  
     2         7         6        9.38  555000.  
     2         7         7        9.38  555000.  
     2         8         3        9.38  555000.  
     2         8         4        9.38  555000.  
     2         8         5        9.38  555000.  
     2         8         6        9.38  555000.  
     2         8         7        9.38  555000.  
     2         9         3        9.38  555000.  
     2         9         4        9.38  555000.  
     2         9         5        9.38  555000.  
     2         9         6        9.38  555000.  
     2         9         7        9.38  555000.  
     2        10         3        9.38  555000.  
     2        10         4        9.38  555000.  
     2        10         5        9.38  555000.  
     2        10         6        9.38  555000.  
     2        10         7        9.38  555000.  
     2        10         8        9.38  555000.  
     2        11         4        9.38  555000.  
     2        11         5        9.38  555000.  
     2        11         6        9.38  555000.  
     2        11         7        9.38  555000.  
     2        11         8        9.38  555000.  
     2        12         4        9.38  555000.  
     2        12         5        9.38  555000.  
     2        12         6        9.38  555000.  
     2        12         7        9.38  555000.  
     2        12         8        9.38  555000.  
     2        12         9        9.38  555000.  
     2        13         5        9.38  555000.  
     2        13         6        9.38  555000.  
     2        13         7        9.38  555000.  
     2        13         8        9.38  555000.  
     2        13         9        9.38  555000.  
     2        14         5        9.38  555000.  
     2        14         6        9.38  555000.  
     2        14         7        9.38  555000.  
     2        14         8        9.38  555000.  
     2        14         9        9.38  555000.  
     2        15         5        9.38  555000.  
     2        15         6        9.38  555000.  
     2        15         7        9.38  555000.  
     2        15         8        9.38  555000.  
     2        15         9        9.38  555000.  
     2        16         6        9.38  555000.  
     2        16         7        9.38  555000.  
     2        16         8        9.38  555000.  
     2        16         9        9.38  555000. 
     1         3         4        9.38    6400.  
     1         3         5        9.38    6400.  
     1         3         6        9.38    6400.  
     1         3         7        9.38    6400.  
     1         4         8        9.38    6400.  
     1         5         8        9.38    6400.  
     1         6         8        9.38    6400.  
     1         7         8        9.38    6400.  
     1         8         8        9.38    6400.  
     1         9         8        9.38    6400.  
     1         9         8        9.38    6400.  
     1        10         9        9.38    6400.  
     1        11         9        9.38    6400.  
     1        11         9        9.38    6400.  
     1        12        10        9.38    6400.  
     1        13        10        9.38    6400.  
     1        14        10        9.38    6400.  
     1        15        10        9.38    6400.  
     1        16        10        9.38    6400.  
     1        17         9        9.38    6400.  
     1        17         8        9.38    6400.  
     1        17         7        9.38    6400.  
     1        17         6        9.38    6400.  
     1        16         5        9.38    6400.  
     1        16         5        9.38    6400.  
     1        15         4        9.38    6400.  
     1        14         4        9.38    6400.  
     1        13         4        9.38    6400.  
     1        13         4        9.38    6400.  
     1        12         3        9.38    6400.  
     1        11         3        9.38    6400.  
     1        11         3        9.38    6400.  
     1        10         2        9.38    6400.  
     1         9         2        9.38    6400.  
     1         8         2        9.38    6400.  
     1         7         2        9.38    6400.  
     1         6         2        9.38    6400.  
     1         5         2        9.38    6400.  
     1         4         3        9.38    6400.  
     1         4         3        9.38    6400.  
end period
