BEGIN OPTIONS
  TIME_UNITS days
END OPTIONS

BEGIN DIMENSIONS
  NPER 1
END DIMENSIONS

BEGIN PERIODDATA
  365.0  1  1.0
END PERIODDATA
