# File generated by Flopy version 3.4.2 on 09/12/2023 at 13:51:58.
BEGIN options
  READASARRAYS
END options

BEGIN period  1
  recharge
    CONSTANT       0.00500000
END period  1

