# File generated by Flopy version 3.4.2 on 09/12/2023 at 13:51:58.
BEGIN OPTIONS
  SAVE_FLOWS
END OPTIONS

BEGIN GRIDDATA
  icelltype  LAYERED
    CONSTANT  1
    CONSTANT  0
    CONSTANT  0
  k  LAYERED
    INTERNAL  FACTOR  1.0
         100.00000000     100.00000000     100.00000000     100.00000000     100.00000000     100.00000000     100.00000000     100.00000000     100.00000000     100.00000000     100.00000000     100.00000000     100.00000000     100.00000000     100.00000000     100.00000000     100.00000000     100.00000000     100.00000000     100.00000000
         100.00000000     100.00000000     100.00000000     100.00000000     100.00000000     100.00000000     100.00000000     100.00000000     100.00000000     100.00000000     100.00000000     100.00000000     100.00000000     100.00000000     100.00000000     100.00000000     100.00000000     100.00000000     100.00000000     100.00000000
         100.00000000     100.00000000     100.00000000     100.00000000     100.00000000     100.00000000     100.00000000     100.00000000     100.00000000     100.00000000     100.00000000     100.00000000     100.00000000     100.00000000     100.00000000     100.00000000     100.00000000     100.00000000     100.00000000     100.00000000
         100.00000000     100.00000000     100.00000000     100.00000000     100.00000000     100.00000000     100.00000000     100.00000000     100.00000000     100.00000000     100.00000000     100.00000000     100.00000000     100.00000000     100.00000000     100.00000000     100.00000000     100.00000000     100.00000000     100.00000000
         100.00000000     100.00000000     100.00000000     100.00000000     100.00000000     100.00000000     100.00000000     100.00000000     100.00000000     100.00000000     100.00000000     100.00000000     100.00000000     100.00000000     100.00000000     100.00000000     100.00000000     100.00000000     100.00000000     100.00000000
         100.00000000     100.00000000     100.00000000     100.00000000     100.00000000     100.00000000     100.00000000     100.00000000     100.00000000     100.00000000     100.00000000     100.00000000     100.00000000     100.00000000     100.00000000     100.00000000     100.00000000     100.00000000     100.00000000     100.00000000
         100.00000000     100.00000000     100.00000000     100.00000000     100.00000000     100.00000000     100.00000000     100.00000000     100.00000000     100.00000000     100.00000000     100.00000000     100.00000000     100.00000000     100.00000000     100.00000000     100.00000000     100.00000000     100.00000000     100.00000000
         100.00000000     100.00000000     100.00000000     100.00000000     100.00000000     100.00000000     100.00000000     100.00000000     100.00000000     100.00000000     100.00000000     100.00000000     100.00000000     100.00000000     100.00000000     100.00000000     100.00000000     100.00000000     100.00000000     100.00000000
         100.00000000     100.00000000     100.00000000     100.00000000     100.00000000     100.00000000     100.00000000     100.00000000     100.00000000     100.00000000     100.00000000     100.00000000     100.00000000     100.00000000     100.00000000     100.00000000     100.00000000     100.00000000     100.00000000     100.00000000
         100.00000000     100.00000000     100.00000000     100.00000000     100.00000000     100.00000000     100.00000000     100.00000000     100.00000000     100.00000000     100.00000000     100.00000000     100.00000000     100.00000000     100.00000000     100.00000000     100.00000000     100.00000000     100.00000000     100.00000000
         100.00000000     100.00000000     100.00000000     100.00000000     100.00000000     100.00000000     100.00000000     100.00000000     100.00000000     100.00000000     100.00000000     100.00000000     100.00000000     100.00000000     100.00000000     100.00000000     100.00000000     100.00000000     100.00000000     100.00000000
         100.00000000     100.00000000     100.00000000     100.00000000     100.00000000     100.00000000     100.00000000     100.00000000     100.00000000     100.00000000     100.00000000     100.00000000     100.00000000     100.00000000     100.00000000     100.00000000     100.00000000     100.00000000     100.00000000     100.00000000
         100.00000000     100.00000000     100.00000000     100.00000000     100.00000000     100.00000000     100.00000000     100.00000000     100.00000000     100.00000000     100.00000000     100.00000000     100.00000000     100.00000000     100.00000000     100.00000000     100.00000000     100.00000000     100.00000000     100.00000000
         100.00000000     100.00000000     100.00000000     100.00000000     100.00000000     100.00000000     100.00000000     100.00000000     100.00000000     100.00000000     100.00000000     100.00000000     100.00000000     100.00000000     100.00000000     100.00000000     100.00000000     100.00000000     100.00000000     100.00000000
         100.00000000     100.00000000     100.00000000     100.00000000     100.00000000     100.00000000     100.00000000     100.00000000     100.00000000     100.00000000     100.00000000     100.00000000     100.00000000     100.00000000     100.00000000     100.00000000     100.00000000     100.00000000     100.00000000     100.00000000
         100.00000000     100.00000000     100.00000000     100.00000000     100.00000000     100.00000000     100.00000000     100.00000000     100.00000000     100.00000000     100.00000000     100.00000000     100.00000000     100.00000000     100.00000000     100.00000000     100.00000000     100.00000000     100.00000000     100.00000000
         100.00000000     100.00000000     100.00000000     100.00000000     100.00000000     100.00000000     100.00000000     100.00000000     100.00000000     100.00000000     100.00000000     100.00000000     100.00000000     100.00000000     100.00000000     100.00000000     100.00000000     100.00000000     100.00000000     100.00000000
         100.00000000     100.00000000     100.00000000     100.00000000     100.00000000     100.00000000     100.00000000     100.00000000     100.00000000     100.00000000     100.00000000     100.00000000     100.00000000     100.00000000     100.00000000     100.00000000     100.00000000     100.00000000     100.00000000     100.00000000
         100.00000000     100.00000000     100.00000000     100.00000000     100.00000000     100.00000000     100.00000000     100.00000000     100.00000000     100.00000000     100.00000000     100.00000000     100.00000000     100.00000000     100.00000000     100.00000000     100.00000000     100.00000000     100.00000000     100.00000000
         100.00000000     100.00000000     100.00000000     100.00000000     100.00000000     100.00000000     100.00000000     100.00000000     100.00000000     100.00000000     100.00000000     100.00000000     100.00000000     100.00000000     100.00000000     100.00000000     100.00000000     100.00000000     100.00000000     100.00000000
         100.00000000     100.00000000     100.00000000     100.00000000     100.00000000     100.00000000     100.00000000     100.00000000     100.00000000     100.00000000     100.00000000     100.00000000     100.00000000     100.00000000     100.00000000     100.00000000     100.00000000     100.00000000     100.00000000     100.00000000
    INTERNAL  FACTOR  1.0
           0.02000000       0.02000000       0.02000000       0.02000000       0.02000000       0.02000000       0.02000000       0.02000000       0.02000000       0.02000000       0.02000000       0.02000000       0.02000000       0.02000000       0.02000000       0.02000000       0.02000000       0.02000000       0.02000000       0.02000000
           0.02000000       0.02000000       0.02000000       0.02000000       0.02000000       0.02000000       0.02000000       0.02000000       0.02000000       0.02000000       0.02000000       0.02000000       0.02000000       0.02000000       0.02000000       0.02000000       0.02000000       0.02000000       0.02000000       0.02000000
           0.02000000       0.02000000       0.02000000       0.02000000       0.02000000       0.02000000       0.02000000       0.02000000       0.02000000       0.02000000       0.02000000       0.02000000       0.02000000       0.02000000       0.02000000       0.02000000       0.02000000       0.02000000       0.02000000       0.02000000
           0.02000000       0.02000000       0.02000000       0.02000000       0.02000000       0.02000000       0.02000000       0.02000000       0.02000000       0.02000000       0.02000000       0.02000000       0.02000000       0.02000000       0.02000000       0.02000000       0.02000000       0.02000000       0.02000000       0.02000000
           0.02000000       0.02000000       0.02000000       0.02000000       0.02000000       0.02000000       0.02000000       0.02000000       0.02000000       0.02000000       0.02000000       0.02000000       0.02000000       0.02000000       0.02000000       0.02000000       0.02000000       0.02000000       0.02000000       0.02000000
           0.02000000       0.02000000       0.02000000       0.02000000       0.02000000       0.02000000       0.02000000       0.02000000       0.02000000       0.02000000       0.02000000       0.02000000       0.02000000       0.02000000       0.02000000       0.02000000       0.02000000       0.02000000       0.02000000       0.02000000
           0.02000000       0.02000000       0.02000000       0.02000000       0.02000000       0.02000000       0.02000000       0.02000000       0.02000000       0.02000000       0.02000000       0.02000000       0.02000000       0.02000000       0.02000000       0.02000000       0.02000000       0.02000000       0.02000000       0.02000000
           0.02000000       0.02000000       0.02000000       0.02000000       0.02000000       0.02000000       0.02000000       0.02000000       0.02000000       0.02000000       0.02000000       0.02000000       0.02000000       0.02000000       0.02000000       0.02000000       0.02000000       0.02000000       0.02000000       0.02000000
           0.02000000       0.02000000       0.02000000       0.02000000       0.02000000       0.02000000       0.02000000       0.02000000       0.02000000       0.02000000       0.02000000       0.02000000       0.02000000       0.02000000       0.02000000       0.02000000       0.02000000       0.02000000       0.02000000       0.02000000
           0.02000000       0.02000000       0.02000000       0.02000000       0.02000000       0.02000000       0.02000000       0.02000000       0.02000000       0.02000000       0.02000000       0.02000000       0.02000000       0.02000000       0.02000000       0.02000000       0.02000000       0.02000000       0.02000000       0.02000000
           0.02000000       0.02000000       0.02000000       0.02000000       0.02000000       0.02000000       0.02000000       0.02000000       0.02000000       0.02000000       0.02000000       0.02000000       0.02000000       0.02000000       0.02000000       0.02000000       0.02000000       0.02000000       0.02000000       0.02000000
           0.02000000       0.02000000       0.02000000       0.02000000       0.02000000       0.02000000       0.02000000       0.02000000       0.02000000       0.02000000       0.02000000       0.02000000       0.02000000       0.02000000       0.02000000       0.02000000       0.02000000       0.02000000       0.02000000       0.02000000
           0.02000000       0.02000000       0.02000000       0.02000000       0.02000000       0.02000000       0.02000000       0.02000000       0.02000000       0.02000000       0.02000000       0.02000000       0.02000000       0.02000000       0.02000000       0.02000000       0.02000000       0.02000000       0.02000000       0.02000000
           0.02000000       0.02000000       0.02000000       0.02000000       0.02000000       0.02000000       0.02000000       0.02000000       0.02000000       0.02000000       0.02000000       0.02000000       0.02000000       0.02000000       0.02000000       0.02000000       0.02000000       0.02000000       0.02000000       0.02000000
           0.02000000       0.02000000       0.02000000       0.02000000       0.02000000       0.02000000       0.02000000       0.02000000       0.02000000       0.02000000       0.02000000       0.02000000       0.02000000       0.02000000       0.02000000       0.02000000       0.02000000       0.02000000       0.02000000       0.02000000
           0.02000000       0.02000000       0.02000000       0.02000000       0.02000000       0.02000000       0.02000000       0.02000000       0.02000000       0.02000000       0.02000000       0.02000000       0.02000000       0.02000000       0.02000000       0.02000000       0.02000000       0.02000000       0.02000000       0.02000000
           0.02000000       0.02000000       0.02000000       0.02000000       0.02000000       0.02000000       0.02000000       0.02000000       0.02000000       0.02000000       0.02000000       0.02000000       0.02000000       0.02000000       0.02000000       0.02000000       0.02000000       0.02000000       0.02000000       0.02000000
           0.02000000       0.02000000       0.02000000       0.02000000       0.02000000       0.02000000       0.02000000       0.02000000       0.02000000       0.02000000       0.02000000       0.02000000       0.02000000       0.02000000       0.02000000       0.02000000       0.02000000       0.02000000       0.02000000       0.02000000
           0.02000000       0.02000000       0.02000000       0.02000000       0.02000000       0.02000000       0.02000000       0.02000000       0.02000000       0.02000000       0.02000000       0.02000000       0.02000000       0.02000000       0.02000000       0.02000000       0.02000000       0.02000000       0.02000000       0.02000000
           0.02000000       0.02000000       0.02000000       0.02000000       0.02000000       0.02000000       0.02000000       0.02000000       0.02000000       0.02000000       0.02000000       0.02000000       0.02000000       0.02000000       0.02000000       0.02000000       0.02000000       0.02000000       0.02000000       0.02000000
           0.02000000       0.02000000       0.02000000       0.02000000       0.02000000       0.02000000       0.02000000       0.02000000       0.02000000       0.02000000       0.02000000       0.02000000       0.02000000       0.02000000       0.02000000       0.02000000       0.02000000       0.02000000       0.02000000       0.02000000
    INTERNAL  FACTOR  1.0
         400.00000000     400.00000000     400.00000000     400.00000000     400.00000000     400.00000000     400.00000000     400.00000000     400.00000000     400.00000000     400.00000000     400.00000000     400.00000000     400.00000000     400.00000000     400.00000000     400.00000000     400.00000000     400.00000000     400.00000000
         400.00000000     400.00000000     400.00000000     400.00000000     400.00000000     400.00000000     400.00000000     400.00000000     400.00000000     400.00000000     400.00000000     400.00000000     400.00000000     400.00000000     400.00000000     400.00000000     400.00000000     400.00000000     400.00000000     400.00000000
         400.00000000     400.00000000     400.00000000     400.00000000     400.00000000     400.00000000     400.00000000     400.00000000     400.00000000     400.00000000     400.00000000     400.00000000     400.00000000     400.00000000     400.00000000     400.00000000     400.00000000     400.00000000     400.00000000     400.00000000
         400.00000000     400.00000000     400.00000000     400.00000000     400.00000000     400.00000000     400.00000000     400.00000000     400.00000000     400.00000000     400.00000000     400.00000000     400.00000000     400.00000000     400.00000000     400.00000000     400.00000000     400.00000000     400.00000000     400.00000000
         400.00000000     400.00000000     400.00000000     400.00000000     400.00000000     400.00000000     400.00000000     400.00000000     400.00000000     400.00000000     400.00000000     400.00000000     400.00000000     400.00000000     400.00000000     400.00000000     400.00000000     400.00000000     400.00000000     400.00000000
         400.00000000     400.00000000     400.00000000     400.00000000     400.00000000     400.00000000     400.00000000     400.00000000     400.00000000     400.00000000     400.00000000     400.00000000     400.00000000     400.00000000     400.00000000     400.00000000     400.00000000     400.00000000     400.00000000     400.00000000
         400.00000000     400.00000000     400.00000000     400.00000000     400.00000000     400.00000000     400.00000000     400.00000000     400.00000000     400.00000000     400.00000000     400.00000000     400.00000000     400.00000000     400.00000000     400.00000000     400.00000000     400.00000000     400.00000000     400.00000000
         400.00000000     400.00000000     400.00000000     400.00000000     400.00000000     400.00000000     400.00000000     400.00000000     400.00000000     400.00000000     400.00000000     400.00000000     400.00000000     400.00000000     400.00000000     400.00000000     400.00000000     400.00000000     400.00000000     400.00000000
         400.00000000     400.00000000     400.00000000     400.00000000     400.00000000     400.00000000     400.00000000     400.00000000     400.00000000     400.00000000     400.00000000     400.00000000     400.00000000     400.00000000     400.00000000     400.00000000     400.00000000     400.00000000     400.00000000     400.00000000
         400.00000000     400.00000000     400.00000000     400.00000000     400.00000000     400.00000000     400.00000000     400.00000000     400.00000000     400.00000000     400.00000000     400.00000000     400.00000000     400.00000000     400.00000000     400.00000000     400.00000000     400.00000000     400.00000000     400.00000000
         400.00000000     400.00000000     400.00000000     400.00000000     400.00000000     400.00000000     400.00000000     400.00000000     400.00000000     400.00000000     400.00000000     400.00000000     400.00000000     400.00000000     400.00000000     400.00000000     400.00000000     400.00000000     400.00000000     400.00000000
         400.00000000     400.00000000     400.00000000     400.00000000     400.00000000     400.00000000     400.00000000     400.00000000     400.00000000     400.00000000     400.00000000     400.00000000     400.00000000     400.00000000     400.00000000     400.00000000     400.00000000     400.00000000     400.00000000     400.00000000
         400.00000000     400.00000000     400.00000000     400.00000000     400.00000000     400.00000000     400.00000000     400.00000000     400.00000000     400.00000000     400.00000000     400.00000000     400.00000000     400.00000000     400.00000000     400.00000000     400.00000000     400.00000000     400.00000000     400.00000000
         400.00000000     400.00000000     400.00000000     400.00000000     400.00000000     400.00000000     400.00000000     400.00000000     400.00000000     400.00000000     400.00000000     400.00000000     400.00000000     400.00000000     400.00000000     400.00000000     400.00000000     400.00000000     400.00000000     400.00000000
         400.00000000     400.00000000     400.00000000     400.00000000     400.00000000     400.00000000     400.00000000     400.00000000     400.00000000     400.00000000     400.00000000     400.00000000     400.00000000     400.00000000     400.00000000     400.00000000     400.00000000     400.00000000     400.00000000     400.00000000
         400.00000000     400.00000000     400.00000000     400.00000000     400.00000000     400.00000000     400.00000000     400.00000000     400.00000000     400.00000000     400.00000000     400.00000000     400.00000000     400.00000000     400.00000000     400.00000000     400.00000000     400.00000000     400.00000000     400.00000000
         400.00000000     400.00000000     400.00000000     400.00000000     400.00000000     400.00000000     400.00000000     400.00000000     400.00000000     400.00000000     400.00000000     400.00000000     400.00000000     400.00000000     400.00000000     400.00000000     400.00000000     400.00000000     400.00000000     400.00000000
         400.00000000     400.00000000     400.00000000     400.00000000     400.00000000     400.00000000     400.00000000     400.00000000     400.00000000     400.00000000     400.00000000     400.00000000     400.00000000     400.00000000     400.00000000     400.00000000     400.00000000     400.00000000     400.00000000     400.00000000
         400.00000000     400.00000000     400.00000000     400.00000000     400.00000000     400.00000000     400.00000000     400.00000000     400.00000000     400.00000000     400.00000000     400.00000000     400.00000000     400.00000000     400.00000000     400.00000000     400.00000000     400.00000000     400.00000000     400.00000000
         400.00000000     400.00000000     400.00000000     400.00000000     400.00000000     400.00000000     400.00000000     400.00000000     400.00000000     400.00000000     400.00000000     400.00000000     400.00000000     400.00000000     400.00000000     400.00000000     400.00000000     400.00000000     400.00000000     400.00000000
         400.00000000     400.00000000     400.00000000     400.00000000     400.00000000     400.00000000     400.00000000     400.00000000     400.00000000     400.00000000     400.00000000     400.00000000     400.00000000     400.00000000     400.00000000     400.00000000     400.00000000     400.00000000     400.00000000     400.00000000
  k33  LAYERED
    INTERNAL  FACTOR  1.0
          20.00000000      20.00000000      20.00000000      20.00000000      20.00000000      20.00000000      20.00000000      20.00000000      20.00000000      20.00000000      20.00000000      20.00000000      20.00000000      20.00000000      20.00000000      20.00000000      20.00000000      20.00000000      20.00000000      20.00000000
          20.00000000      20.00000000      20.00000000      20.00000000      20.00000000      20.00000000      20.00000000      20.00000000      20.00000000      20.00000000      20.00000000      20.00000000      20.00000000      20.00000000      20.00000000      20.00000000      20.00000000      20.00000000      20.00000000      20.00000000
          20.00000000      20.00000000      20.00000000      20.00000000      20.00000000      20.00000000      20.00000000      20.00000000      20.00000000      20.00000000      20.00000000      20.00000000      20.00000000      20.00000000      20.00000000      20.00000000      20.00000000      20.00000000      20.00000000      20.00000000
          20.00000000      20.00000000      20.00000000      20.00000000      20.00000000      20.00000000      20.00000000      20.00000000      20.00000000      20.00000000      20.00000000      20.00000000      20.00000000      20.00000000      20.00000000      20.00000000      20.00000000      20.00000000      20.00000000      20.00000000
          20.00000000      20.00000000      20.00000000      20.00000000      20.00000000      20.00000000      20.00000000      20.00000000      20.00000000      20.00000000      20.00000000      20.00000000      20.00000000      20.00000000      20.00000000      20.00000000      20.00000000      20.00000000      20.00000000      20.00000000
          20.00000000      20.00000000      20.00000000      20.00000000      20.00000000      20.00000000      20.00000000      20.00000000      20.00000000      20.00000000      20.00000000      20.00000000      20.00000000      20.00000000      20.00000000      20.00000000      20.00000000      20.00000000      20.00000000      20.00000000
          20.00000000      20.00000000      20.00000000      20.00000000      20.00000000      20.00000000      20.00000000      20.00000000      20.00000000      20.00000000      20.00000000      20.00000000      20.00000000      20.00000000      20.00000000      20.00000000      20.00000000      20.00000000      20.00000000      20.00000000
          20.00000000      20.00000000      20.00000000      20.00000000      20.00000000      20.00000000      20.00000000      20.00000000      20.00000000      20.00000000      20.00000000      20.00000000      20.00000000      20.00000000      20.00000000      20.00000000      20.00000000      20.00000000      20.00000000      20.00000000
          20.00000000      20.00000000      20.00000000      20.00000000      20.00000000      20.00000000      20.00000000      20.00000000      20.00000000      20.00000000      20.00000000      20.00000000      20.00000000      20.00000000      20.00000000      20.00000000      20.00000000      20.00000000      20.00000000      20.00000000
          20.00000000      20.00000000      20.00000000      20.00000000      20.00000000      20.00000000      20.00000000      20.00000000      20.00000000      20.00000000      20.00000000      20.00000000      20.00000000      20.00000000      20.00000000      20.00000000      20.00000000      20.00000000      20.00000000      20.00000000
          20.00000000      20.00000000      20.00000000      20.00000000      20.00000000      20.00000000      20.00000000      20.00000000      20.00000000      20.00000000      20.00000000      20.00000000      20.00000000      20.00000000      20.00000000      20.00000000      20.00000000      20.00000000      20.00000000      20.00000000
          20.00000000      20.00000000      20.00000000      20.00000000      20.00000000      20.00000000      20.00000000      20.00000000      20.00000000      20.00000000      20.00000000      20.00000000      20.00000000      20.00000000      20.00000000      20.00000000      20.00000000      20.00000000      20.00000000      20.00000000
          20.00000000      20.00000000      20.00000000      20.00000000      20.00000000      20.00000000      20.00000000      20.00000000      20.00000000      20.00000000      20.00000000      20.00000000      20.00000000      20.00000000      20.00000000      20.00000000      20.00000000      20.00000000      20.00000000      20.00000000
          20.00000000      20.00000000      20.00000000      20.00000000      20.00000000      20.00000000      20.00000000      20.00000000      20.00000000      20.00000000      20.00000000      20.00000000      20.00000000      20.00000000      20.00000000      20.00000000      20.00000000      20.00000000      20.00000000      20.00000000
          20.00000000      20.00000000      20.00000000      20.00000000      20.00000000      20.00000000      20.00000000      20.00000000      20.00000000      20.00000000      20.00000000      20.00000000      20.00000000      20.00000000      20.00000000      20.00000000      20.00000000      20.00000000      20.00000000      20.00000000
          20.00000000      20.00000000      20.00000000      20.00000000      20.00000000      20.00000000      20.00000000      20.00000000      20.00000000      20.00000000      20.00000000      20.00000000      20.00000000      20.00000000      20.00000000      20.00000000      20.00000000      20.00000000      20.00000000      20.00000000
          20.00000000      20.00000000      20.00000000      20.00000000      20.00000000      20.00000000      20.00000000      20.00000000      20.00000000      20.00000000      20.00000000      20.00000000      20.00000000      20.00000000      20.00000000      20.00000000      20.00000000      20.00000000      20.00000000      20.00000000
          20.00000000      20.00000000      20.00000000      20.00000000      20.00000000      20.00000000      20.00000000      20.00000000      20.00000000      20.00000000      20.00000000      20.00000000      20.00000000      20.00000000      20.00000000      20.00000000      20.00000000      20.00000000      20.00000000      20.00000000
          20.00000000      20.00000000      20.00000000      20.00000000      20.00000000      20.00000000      20.00000000      20.00000000      20.00000000      20.00000000      20.00000000      20.00000000      20.00000000      20.00000000      20.00000000      20.00000000      20.00000000      20.00000000      20.00000000      20.00000000
          20.00000000      20.00000000      20.00000000      20.00000000      20.00000000      20.00000000      20.00000000      20.00000000      20.00000000      20.00000000      20.00000000      20.00000000      20.00000000      20.00000000      20.00000000      20.00000000      20.00000000      20.00000000      20.00000000      20.00000000
          20.00000000      20.00000000      20.00000000      20.00000000      20.00000000      20.00000000      20.00000000      20.00000000      20.00000000      20.00000000      20.00000000      20.00000000      20.00000000      20.00000000      20.00000000      20.00000000      20.00000000      20.00000000      20.00000000      20.00000000
    INTERNAL  FACTOR  1.0
           0.02000000       0.02000000       0.02000000       0.02000000       0.02000000       0.02000000       0.02000000       0.02000000       0.02000000       0.02000000       0.02000000       0.02000000       0.02000000       0.02000000       0.02000000       0.02000000       0.02000000       0.02000000       0.02000000       0.02000000