# # MPBAS package for MODPATH 7 generated by Flopy 3.3.7
1                   # DEFAULTIFACECOUNT
RECHARGE            # PACKAGE LABEL
6                   # DEFAULT IFACE VALUE
CONSTANT    5.000000E-02                           #porosity layer 1              
CONSTANT    5.000000E-02                           #porosity layer 2              
CONSTANT    5.000000E-02                           #porosity layer 3              
CONSTANT    5.000000E-02                           #porosity layer 4              
CONSTANT    5.000000E-02                           #porosity layer 5              
