MODPATH_ENDPOINT_FILE         7         2
    1      4505      4505      4505   0.0000000000E+00  0.0000000000E+00  0.0000000000E+00  0.0000000000E+00
       0       0       0       0       0    4228     277       0       0       0
         1
Contr           
END HEADER
         1         1         1    5  0.0000000000E+00  0.3701533791E+05         1    1  0.9891328000E+00  0.7205883000E+00  0.9800000000E+00  0.4945664000E+03  0.1986029415E+05  0.9087210708E+01    1    0       984    1  0.6068147855E+00  0.1000000000E+01  0.1000000000E+01  0.4303407393E+04  0.5000000000E+03  0.2904539747E+00    1    4
         2         1         2    5  0.0000000000E+00  0.4109154287E+05         1    1  0.4843360000E+00  0.8099669000E+00  0.9800000000E+00  0.2421680000E+03  0.1990498345E+05  0.9087210708E+01    1    0       984    1  0.6068147855E+00  0.1000000000E+01  0.1000000000E+01  0.4303407393E+04  0.5000000000E+03  0.2904539747E+00    1    4
         3         1         3    5  0.0000000000E+00  0.3243439091E+05         1    1  0.5990002000E+00  0.3825850000E+00  0.9800000000E+00  0.2995001000E+03  0.1969129250E+05  0.9087210708E+01    1    0       984    1  0.6068147855E+00  0.1000000000E+01  0.1000000000E+01  0.4303407393E+04  0.5000000000E+03  0.2904539747E+00    1    4
         4         1         4    5  0.0000000000E+00  0.3321380785E+05         1    1  0.3618186000E+00  0.4502286000E+00  0.9800000000E+00  0.1809093000E+03  0.1972511430E+05  0.9087210708E+01    1    0       984    1  0.6068147855E+00  0.1000000000E+01  0.1000000000E+01  0.4303407393E+04  0.5000000000E+03  0.2904539747E+00    1    4
         5         1         5    5  0.0000000000E+00  0.3724742435E+05         1    1  0.5120670000E+00  0.6774655000E+00  0.9800000000E+00  0.2560335000E+03  0.1983873275E+05  0.9087210708E+01    1    0       984    1  0.6068147855E+00  0.1000000000E+01  0.1000000000E+01  0.4303407393E+04  0.5000000000E+03  0.2904539747E+00    1    4
         6         1         6    5  0.0000000000E+00  0.3014028892E+05         2    1  0.6381751000E-01  0.2710391000E+00  0.9800000000E+00  0.5319087550E+03  0.1963551955E+05  0.9073368533E+01    1    0       984    1  0.6068147855E+00  0.1000000000E+01  0.1000000000E+01  0.4303407393E+04  0.5000000000E+03  0.2904539747E+00    1    4
         7         1         7    5  0.0000000000E+00  0.4123127950E+05         2    1  0.5069070000E-01  0.8511253000E+00  0.9800000000E+00  0.5253453500E+03  0.1992556265E+05  0.9073368533E+01    1    0       984    1  0.6068147855E+00  0.1000000000E+01  0.1000000000E+01  0.4303407393E+04  0.5000000000E+03  0.2904539747E+00    1    4
         8         1         8    5  0.0000000000E+00  0.3304007987E+05         2    1  0.6273617000E+00  0.5780139000E+00  0.9800000000E+00  0.8136808500E+03  0.1978900695E+05  0.9073368533E+01    1    0       984    1  0.6068147855E+00  0.1000000000E+01  0.1000000000E+01  0.4303407393E+04  0.5000000000E+03  0.2904539747E+00    1    4
         9         1         9    5  0.0000000000E+00  0.5192227912E+05         2    1  0.1593087000E+00  0.9691565000E+00  0.9800000000E+00  0.5796543500E+03  0.1998457825E+05  0.9073368533E+01    1    0       984    1  0.6068147855E+00  0.1000000000E+01  0.1000000000E+01  0.4303407393E+04  0.5000000000E+03  0.2904539747E+00    1    4
        10         1        10    5  0.0000000000E+00  0.3294150663E+05         2    1  0.4292227000E+00  0.5397625000E+00  0.9800000000E+00  0.7146113500E+03  0.1976988125E+05  0.9073368533E+01    1    0       984    1  0.6068147855E+00  0.1000000000E+01  0.1000000000E+01  0.4303407393E+04  0.5000000000E+03  0.2904539747E+00    1    4
        11         1        11    6  0.0000000000E+00  0.1460232055E+04         3    1  0.3048730000E+00  0.3733300000E-02  0.9800000000E+00  0.1152436500E+04  0.1950186665E+05  0.9050407171E+01    1    0      1079    2  0.3392054629E+00  0.1000000000E+01  0.5543003756E+00  0.1669602731E+04  0.1850000000E+05 -0.2505648310E+02    2    4
        12         1        12    5  0.0000000000E+00  0.2459509095E+05         3    1  0.9706382000E+00  0.5710245000E+00  0.9800000000E+00  0.1485319100E+04  0.1978551225E+05  0.9050407171E+01    1    0       984    1  0.6068147855E+00  0.1000000000E+01  0.1000000000E+01  0.4303407393E+04  0.5000000000E+03  0.2904539747E+00    1    4
        13         1        13    5  0.0000000000E+00  0.2685794611E+05         3    1  0.2748703000E+00  0.4453755000E+00  0.9800000000E+00  0.1137435150E+04  0.1972268775E+05  0.9050407171E+01    1    0       984    1  0.6068147855E+00  0.1000000000E+01  0.1000000000E+01  0.4303407393E+04  0.5000000000E+03  0.2904539747E+00    1    4
        14         1        14    6  0.0000000000E+00  0.1448157566E+04         3    1  0.4474629000E+00  0.2530949000E-01  0.9800000000E+00  0.1223731450E+04  0.1951265474E+05  0.9050407171E+01    1    0      1079    2  0.4285582814E+00  0.1000000000E+01  0.6291000913E+00  0.1714279141E+04  0.1850000000E+05 -0.2169049589E+02    2    4
        15         1        15    5  0.0000000000E+00  0.4520731829E+05         3    1  0.5160693000E+00  0.9802005000E+00  0.9800000000E+00  0.1258034650E+04  0.1999010025E+05  0.9050407171E+01    1    0       984    1  0.6068147855E+00  0.1000000000E+01  0.1000000000E+01  0.4303407393E+04  0.5000000000E+03  0.2904539747E+00    1    4
        16         1        16    6  0.0000000000E+00  0.1499039778E+04         4    1  0.4058597000E+00  0.2592624000E+00  0.9800000000E+00  0.1702929850E+04  0.1962963120E+05  0.9027439176E+01    1    0      1080    2  0.4398480820E-02  0.1000000000E+01  0.5741155522E+00  0.2002199240E+04  0.1850000000E+05 -0.2416480015E+02    2    4
        17         1        17    6  0.0000000000E+00  0.1931204715E+04         4    1  0.2669349000E+00  0.4955307000E+00  0.9800000000E+00  0.1633467450E+04  0.1974776535E+05  0.9027439176E+01    1    0      1080    2  0.3208724582E-02  0.1000000000E+01  0.1347467569E+00  0.2001604362E+04  0.1850000000E+05 -0.4393639594E+02    2    4
        18         1        18    5  0.0000000000E+00  0.2584542640E+05         4    1  0.3847147000E+00  0.6509724000E+00  0.9800000000E+00  0.1692357350E+04  0.1982548620E+05  0.9027439176E+01    1    0       984    1  0.6068147855E+00  0.1000000000E+01  0.1000000000E+01  0.4303407393E+04  0.5000000000E+03  0.2904539747E+00    1    4
        19         1        19    6  0.0000000000E+00  0.8261988099E+03         4    1  0.5361857000E+00  0.8495934000E-01  0.9800000000E+00  0.1768092850E+04  0.1954247967E+05  0.9027439176E+01    1    0        54    1  0.8354637661E+00  0.1000000000E+01  0.2906483822E+00  0.1917731883E+04  0.1900000000E+05 -0.8923446013E+00    2    4
        20         1        20    5  0.0000000000E+00  0.2682491468E+05         4    1  0.9205676000E-01  0.6799554000E+00  0.9800000000E+00  0.1546028380E+04  0.1983997770E+05  0.9027439176E+01    1    0       984    1  0.6068147855E+00  0.1000000000E+01  0.1000000000E+01  0.4303407393E+04  0.5000000000E+03  0.2904539747E+00    1    4
        21         1        21    6  0.0000000000E+00  0.1664230891E+04         5    1  0.2397011000E+00  0.4442748000E+00  0.9800000000E+00  0.2119850550E+04  0.1972213740E+05  0.9015409753E+01    1    0      1080    2  0.4943984635E+00  0.1000000000E+01  0.3291482872E+00  0.2247199232E+04  0.1850000000E+05 -0.3518832708E+02    2    4
        22         1        22    5  0.0000000000E+00  0.2719064104E+05         5    1  0.3244238000E+00  0.8020881000E+00  0.9800000000E+00  0.2162211900E+04  0.1990104405E+05  0.9015409753E+01    1    0       984    1  0.6068147855E+00  0.1000000000E+01  0.1000000000E+01  0.4303407393E+04  0.5000000000E+03  0.2904539747E+00    1    4
        23         1        23    6  0.0000000000E+00  0.1535290243E+04         5    1  0.9499469000E+00  0.3689615000E+00  0.9800000000E+00  0.2474973450E+04  0.1968448075E+05  0.9015409753E+01    1    0      1080    2  0.8923244052E+00  0.1000000000E+01  0.4519057528E+00  0.2446162203E+04  0.1850000000E+05 -0.2966424112E+02    2    4
        24         1        24    6  0.0000000000E+00  0.1900872621E+04         5    1  0.9416317000E+00  0.5600826000E+00  0.9800000000E+00  0.2470815850E+04  0.1978004130E+05  0.9015409753E+01    1    0      1080    2  0.8724051417E+00  0.1000000000E+01  0.1337784427E+00  0.2436202571E+04  0.1850000000E+05 -0.4397997008E+02    2    4
        25         1        25    5  0.0000000000E+00  0.3016379788E+05         5    1  0.8183729000E+00  0.8890133000E+00  0.9800000000E+00  0.2409186450E+04  0.1994450665E+05  0.9015409753E+01    1    0       984    1  0.6068147855E+00  0.1000000000E+01  0.1000000000E+01  0.4303407393E+04  0.5000000000E+03  0.2904539747E+00    1    4
        26         1        26    6  0.0000000000E+00  0.5430623878E+03         6    1  0.4227372000E+00  0.1432649000E-01  0.9800000000E+00  0.2711368600E+04  0.1950716324E+05  0.9019416249E+01    1    0        56    1  0.2750344699E+00  0.1000000000E+01  0.7862068196E+00  0.2637517235E+04  0.1900000000E+05  0.6096820341E+01    2    4
        27         1        27    5  0.0000000000E+00  0.2260628432E+05         6    1  0.7717903000E+00  0.7735863000E+00  0.9800000000E+00  0.2885895150E+04  0.1988679315E+05  0.9019416249E+01    1    0       984    1  0.6068147855E+00  0.1000000000E+01  0.1000000000E+01  0.4303407393E+04  0.5000000000E+03  0.2904539747E+00    1    4
        28         1        28    6  0.0000000000E+00  0.5422357626E+03         6    1  0.5215717000E+00  0.1333384000E-01  0.9800000000E+00  0.2760785850E+04  0.1950666692E+05  0.9019416249E+01    1    0        56    1  0.3404846672E+00  0.1000000000E+01  0.7869738254E+00  0.2670242334E+04  0.1900000000E+05  0.6107646150E+01    2    4
        29         1        29    5  0.0000000000E+00  0.2297282454E+05         6    1  0.4470760000E-01  0.6947429000E+00  0.9800000000E+00  0.2522353800E+04  0.1984737145E+05  0.9019416249E+01    1    0       984    1  0.6068147855E+00  0.1000000000E+01  0.1000000000E+01  0.4303407393E+04  0.5000000000E+03  0.2904539747E+00    1    4
        30         1        30    5  0.0000000000E+00  0.2379173785E+05         6    1  0.6140646000E+00  0.8121040000E+00  0.9800000000E+00  0.2807032300E+04  0.1990605200E+05  0.9019416249E+01    1    0       984    1  0.6068147855E+00  0.1000000000E+01  0.1000000000E+01  0.4303407393E+04  0.5000000000E+03  0.2904539747E+00    1    4
        31         1        31    5  0.0000000000E+00  0.2334467092E+05         7    1  0.9713171000E+00  0.7896858000E+00  0.9800000000E+00  0.3485658550E+04  0.1989484290E+05  0.9052489955E+01    1    0       984    1  0.6068147855E+00  0.1000000000E+01  0.1000000000E+01  0.4303407393E+04  0.5000000000E+03  0.2904539747E+00    1    4
        32         1        32    6  0.0000000000E+00  0.5711053074E+03         7    1  0.9803790000E+00  0.3732073000E-01  0.9800000000E+00  0.3490189500E+04  0.1951866036E+05  0.9052489955E+01    1    0        57    1  0.2776420145E+00  0.1000000000E+01  0.7582001476E+00  0.3138821007E+04  0.1900000000E+05  0.5729006155E+01    2    4
        33         1        33    6  0.0000000000E+00  0.1366070916E+04         7    1  0.9938254000E+00  0.4606431000E+00  0.9800000000E+00  0.3496912700E+04  0.1973032155E+05  0.9052489955E+01    1    0      1081    2  0.7820412686E+00  0.1000000000E+01  0.5517548928E+00  0.2891020634E+04  0.1850000000E+05 -0.2517102983E+02    2    4
        34         1        34    5  0.0000000000E+00  0.2257780432E+05         7    1  0.9483188000E+00  0.7634444000E+00  0.9800000000E+00  0.3474159400E+04  0.1988172220E+05  0.9052489955E+01    1    0       984    1  0.6068147855E+00  0.1000000000E+01  0.1000000000E+01  0.4303407393E+04  0.5000000000E+03  0.2904539747E+00    1    4
        35         1        35    6  0.0000000000E+00  0.5786151532E+03         7    1  0.4335271000E+00  0.4684607000E-01  0.9800000000E+00  0.3216763550E+04  0.1952342303E+05  0.9052489955E+01    1    0        56    1  0.9229580363E+00  0.1000000000E+01  0.7502207065E+00  0.2961479018E+04  0.1900000000E+05  0.5588898733E+01    2    4
        36         1        36    6  0.0000000000E+00  0.6919284722E+03         8    1  0.2053595000E+00  0.1415208000E+00  0.9800000000E+00  0.3602679750E+04  0.1957076040E+05  0.9105262199E+01    1    0        57    1  0.3393327776E+00  0.1000000000E+01  0.5853480683E+00  0.3169666389E+04  0.1900000000E+05  0.3283041156E+01    2    4
        37         1        37    5  0.0000000000E+00  0.2296351528E+05         8    1  0.5770307000E+00  0.7490176000E+00  0.9800000000E+00  0.3788515350E+04  0.1987450880E+05  0.9105262199E+01    1    0       984    1  0.6068147855E+00  0.1000000000E+01  0.1000000000E+01  0.4303407393E+04  0.5000000000E+03  0.2904539747E+00    1    4
        38         1        38    5  0.0000000000E+00  0.2403446915E+05         8    1  0.4988896000E+00  0.7901669000E+00  0.9800000000E+00  0.3749444800E+04  0.1989508345E+05  0.9105262199E+01    1    0       984    1  0.6068147855E+00  0.1000000000E+01  0.1000000000E+01  0.4303407393E+04  0.5000000000E+03  0.2904539747E+00    1    4
        39         1        39    5  0.0000000000E+00  0.2377474021E+05         8    1  0.9527965000E+00  0.7629019000E+00  0.9800000000E+00  0.3976398250E+04  0.1988145095E+05  0.9105262199E+01    1    0       984    1  0.6068147855E+00  0.1000000000E+01  0.1000000000E+01  0.4303407393E+04  0.5000000000E+03  0.2904539747E+00    1    4
        40         1        40    6  0.0000000000E+00  0.8616168546E+03         8    1  0.9996928000E+00  0.2141258000E+00  0.9800000000E+00  0.3999846400E+04  0.1960706290E+05  0.9105262199E+01    1    0        57    1  0.7061778598E+00  0.1000000000E+01  0.1114832021E+00  0.3353088930E+04  0.1900000000E+05 -0.3422442986E+01    2    4
        41         1        41    5  0.0000000000E+00  0.2305070170E+05         9    1  0.9686945000E+00  0.6559042000E+00  0.9800000000E+00  0.4484347250E+04  0.1982795210E+05  0.9167435545E+01    1    0       984    1  0.6068147855E+00  0.1000000000E+01  0.1000000000E+01  0.4303407393E+04  0.5000000000E+03  0.2904539747E+00    1    4
        42         1        42    6  0.0000000000E+00  0.1219955990E+04         9    1  0.4164168000E+00  0.1551405000E+00  0.9800000000E+00  0.4208208400E+04  0.1957757025E+05  0.9167435545E+01    1    0      1082    2  0.4112634346E+00  0.1000000000E+01  0.7091321637E+00  0.3205631717E+04  0.1850000000E+05 -0.1808905263E+02    2    4
        43         1        43    6  0.0000000000E+00  0.1594792194E+04         9    1  0.3732826000E+00  0.4851998000E+00  0.9800000000E+00  0.4186641300E+04  0.1974259990E+05  0.9167435545E+01    1    0      1082    2  0.1655469452E+00  0.1000000000E+01  0.3097539726E+00  0.3082773473E+04  0.1850000000E+05 -0.3606107123E+02    2    4
        44         1        44    6  0.0000000000E+00  0.1198949530E+04         9    1  0.8248324000E+00  0.7542419000E-02  0.9800000000E+00  0.4412416200E+04  0.1950377121E+05  0.9167435545E+01    1    0      1082    2  0.6242833321E+00  0.1000000000E+01  0.6884539503E+00  0.3312141666E+04  0.1850000000E+05 -0.1901957224E+02    2    4
        45         1        45    6  0.0000000000E+00  0.1646660920E+04         9    1  0.4433121000E+00  0.5046267000E+00  0.9800000000E+00  0.4221656050E+04  0.1975231335E+05  0.9167435545E+01    1    0      1082    2  0.1638245219E+00  0.1000000000E+01  0.2619853564E+00  0.3081912261E+04  0.1850000000E+05 -0.3821065896E+02    2    4
        46         1        46    5  0.0000000000E+00  0.2302809233E+05        10    1  0.6118394000E+00  0.5280163000E+00  0.9800000000E+00  0.4805919700E+04  0.1976400815E+05  0.9234702710E+01    1    0       984    1  0.6068147855E+00  0.1000000000E+01  0.1000000000E+01  0.4303407393E+04  0.5000000000E+03  0.2904539747E+00    1    4
        47         1        47    6  0.0000000000E+00  0.1508993389E+04        10    1  0.6337875000E+00  0.3070834000E-01  0.9800000000E+00  0.4816893750E+04  0.1951535417E+05  0.9234702710E+01    1    0      1082    2  0.8315289630E+00  0.1000000000E+01  0.3191006844E+00  0.3415764482E+04  0.1850000000E+05 -0.3564046920E+02    2    4
        48         1        48    5  0.0000000000E+00  0.3568724403E+05        10    1  0.8479197000E+00  0.9687609000E+00  0.9800000000E+00  0.4923959850E+04  0.1998438045E+05  0.9234702710E+01    1    0       984    1  0.6068147855E+00  0.1000000000E+01  0.1000000000E+01  0.4303407393E+04  0.5000000000E+03  0.2904539747E+00    1    4
        49         1        49    6  0.0000000000E+00  0.1787916396E+04        10    1  0.1460864000E+00  0.4508091000E+00  0.9800000000E+00  0.4573043200E+04  0.1972540455E+05  0.9234702710E+01    1    0      1082    2  0.3597032625E+00  0.1000000000E+01  0.1298262193E+00  0.3179851631E+04  0.1850000000E+05 -0.4415782013E+02    2    4
        50         1        50    5  0.0000000000E+00  0.2774293691E+05        10    1  0.8045962000E+00  0.8285664000E+00  0.9800000000E+00  0.4902298100E+04  0.1991428320E+05  0.9234702710E+01    1    0       984    1  0.6068147855E+00  0.1000000000E+01  0.1000000000E+01  0.4303407393E+04  0.5000000000E+03  0.2904539747E+00    1    4
        51         1        51    5  0.0000000000E+00  0.2458029711E+05        11    1  0.6328092000E+00  0.5206872000E+00  0.9800000000E+00  0.5316404600E+04  0.1976034360E+05  0.9301503289E+01    1    0       984    1  0.6068147855E+00  0.1000000000E+01  0.1000000000E+01  0.4303407393E+04  0.5000000000E+03  0.2904539747E+00    1    4
        52         1        52    5  0.0000000000E+00  0.2417093089E+05        11    1  0.9796752000E+00  0.4257469000E+00  0.9800000000E+00  0.5489837600E+04  0.1971287345E+05  0.9301503289E+01    1    0       984    1  0.6068147855E+00  0.1000000000E+01  0.1000000000E+01  0.4303407393E+04  0.5000000000E+03  0.2904539747E+00    1    4
        53         1        53    5  0.0000000000E+00  0.2189084263E+05        11    1  0.3126240000E-01  0.3034526000E+00  0.9800000000E+00  0.5015631200E+04  0.1965172630E+05  0.9301503289E+01    1    0       984    1  0.6068147855E+00  0.1000000000E+01  0.1000000000E+01  0.4303407393E+04  0.5000000000E+03  0.2904539747E+00    1    4
        54         1        54    5  0.0000000000E+00  0.2571120581E+05        11    1  0.1278990000E+00  0.6928988000E+00  0.9800000000E+00  0.5063949500E+04  0.1984644940E+05  0.9301503289E+01    1    0       984    1  0.6068147855E+00  0.1000000000E+01  0.1000000000E+01  0.4303407393E+04  0.5000000000E+03  0.2904539747E+00    1    4
        55         1        55    5  0.0000000000E+00  0.2359208125E+05        11    1  0.1696057000E+00  0.4819910000E+00  0.9800000000E+00  0.5084802850E+04  0.1974099550E+05  0.9301503289E+01    1    0       984    1  0.6068147855E+00  0.1000000000E+01  0.1000000000E+01  0.4303407393E+04  0.5000000000E+03  0.2904539747E+00    1    4
        56         1        56    5  0.0000000000E+00  0.2236256063E+05        12    1  0.4806456000E-01  0.6230808000E-01  0.9800000000E+00  0.5524032280E+04  0.1953115404E+05  0.9365099873E+01    1    0       984    1  0.6068147855E+00  0.1000000000E+01  0.1000000000E+01  0.4303407393E+04  0.5000000000E+03  0.2904539747E+00    1    4
        57         1        57    5  0.0000000000E+00  0.2634514853E+05        12    1  0.5343034000E+00  0.6353489000E+00  0.9800000000E+00  0.5767151700E+04  0.1981767445E+05  0.9365099873E+01    1    0       984    1  0.6068147855E+00  0.1000000000E+01  0.1000000000E+01  0.4303407393E+04  0.5000000000E+03  0.2904539747E+00    1    4
        58         1        58    5  0.0000000000E+00  0.2465999103E+05        12    1  0.2242822000E+00  0.4706573000E+00  0.9800000000E+00  0.5612141100E+04  0.1973532865E+05  0.9365099873E+01    1    0       984    1  0.6068147855E+00  0.1000000000E+01  0.1000000000E+01  0.4303407393E+04  0.5000000000E+03  0.2904539747E+00    1    4
        59         1        59    5  0.0000000000E+00  0.2348289271E+05        12    1  0.8202358000E-01  0.2996129000E+00  0.9800000000E+00  0.5541011790E+04  0.1964980645E+05  0.9365099873E+01    1    0       984    1  0.6068147855E+00  0.1000000000E+01  0.1000000000E+01  0.4303407393E+04  0.5000000000E+03  0.2904539747E+00    1    4
        60         1        60    5  0.0000000000E+00  0.2469460937E+05        12    1  0.9825744000E+00  0.4454598000E+00  0.9800000000E+00  0.5991287200E+04  0.1972272990E+05  0.9365099873E+01    1    0       984    1  0.6068147855E+00  0.1000000000E+01  0.1000000000E+01  0.4303407393E+04  0.5000000000E+03  0.2904539747E+00    1    4
        61         1        61    5  0.0000000000E+00  0.3367204733E+05        13    1  0.1674641000E+00  0.9441801000E+00  0.9800000000E+00  0.6083732050E+04  0.1997209005E+05  0.9424465839E+01    1    0       984    1  0.6068147855E+00  0.1000000000E+01  0.1000000000E+01  0.4303407393E+04  0.5000000000E+03  0.2904539747E+00    1    4
        62         1        62    5  0.0000000000E+00  0.5262307697E+05        13    1  0.4251518000E+00  0.9992145000E+00  0.9800000000E+00  0.6212575900E+04  0.1999960725E+05  0.9424465839E+01    1    0       984    1  0.6068147855E+00  0.1000000000E+01  0.1000000000E+01  0.4303407393E+04  0.5000000000E+03  0.2904539747E+00    1    4
        63         1        63    5  0.0000000000E+00  0.2789533875E+05        13    1  0.1785605000E-01  0.7575567000E+00  0.9800000000E+00  0.6008928025E+04  0.1987877835E+05  0.9424465839E+01    1    0       984    1  0.6068147855E+00  0.1000000000E+01  0.1000000000E+01  0.4303407393E+04  0.5000000000E+03  0.2904539747E+00    1    4
        64         1        64    5  0.0000000000E+00  0.2526966866E+05        13    1  0.3057652000E+00  0.5276490000E+00  0.9800000000E+00  0.6152882600E+04  0.1976382450E+05  0.9424465839E+01    1    0       984    1  0.6068147855E+00  0.1000000000E+01  0.1000000000E+01  0.4303407393E+04  0.5000000000E+03  0.2904539747E+00    1    4
        65         1        65    5  0.0000000000E+00  0.2636260184E+05        13    1  0.1764667000E+00  0.6377642000E+00  0.9800000000E+00  0.6088233350E+04  0.1981888210E+05  0.9424465839E+01    1    0       984    1  0.6068147855E+00  0.1000000000E+01  0.1000000000E+01  0.4303407393E+04  0.5000000000E+03  0.2904539747E+00    1    4
        66         1        66    5  0.0000000000E+00  0.3173760027E+05        14    1  0.5744897000E+00  0.9305638000E+00  0.9800000000E+00  0.6787244850E+04  0.1996528190E+05  0.9479495977E+01    1    0       984    1  0.6068147855E+00  0.1000000000E+01  0.1000000000E+01  0.4303407393E+04  0.5000000000E+03  0.2904539747E+00    1    4
        67         1        67    5  0.0000000000E+00  0.2645581704E+05        14    1  0.5651562000E+00  0.7296948000E+00  0.9800000000E+00  0.6782578100E+04  0.1986484740E+05  0.9479495977E+01    1    0       984    1  0.6068147855E+00  0.1000000000E+01  0.1000000000E+01  0.4303407393E+04  0.5000000000E+03  0.2904539747E+00    1    4
        68         1        68    5  0.0000000000E+00  0.2598265003E+05        14    1  0.6273648000E+00  0.6820212000E+00  0.9800000000E+00  0.6813682400E+04  0.1984101060E+05  0.9479495977E+01    1    0       984    1  0.6068147855E+00  0.1000000000E+01  0.1000000000E+01  0.4303407393E+04  0.5000000000E+03  0.2904539747E+00    1    4
        69         1        69    5  0.0000000000E+00  0.2522431270E+05        14    1  0.3402612000E+00  0.1369249000E+00  0.9800000000E+00  0.6670130600E+04  0.1956846245E+05  0.9479495977E+01    1    0       984    1  0.6068147855E+00  0.1000000000E+01  0.1000000000E+01  0.4303407393E+04  0.5000000000E+03  0.2904539747E+00    1    4
        70         1        70    5  0.0000000000E+00  0.2534989548E+05        14    1  0.3788445000E+00  0.2313731000E+00  0.9800000000E+00  0.6689422250E+04  0.1961568655E+05  0.9479495977E+01    1    0       984    1  0.6068147855E+00  0.1000000000E+01  0.1000000000E+01  0.4303407393E+04  0.5000000000E+03  0.2904539747E+00    1    4
        71         1        71    5  0.0000000000E+00  0.4507485598E+04        15    1  0.6093645000E+00  0.3876644000E-01  0.9800000000E+00  0.7304682250E+04  0.1951938322E+05  0.9530224698E+01    1    0      4140    5  0.0000000000E+00  0.5901430966E+00  0.4960328439E+00  0.7000000000E+04  0.1729507155E+05 -0.1503967156E+03    3    1
        72         1        72    5  0.0000000000E+00  0.6544048604E+04        15    1  0.5201286000E+00  0.4067502000E+00  0.9800000000E+00  0.7260064300E+04  0.1970337510E+05  0.9530224698E+01    1    0      4140    5  0.0000000000E+00  0.4229894901E+00  0.2696492308E+00  0.7000000000E+04  0.1721149475E+05 -0.1730350769E+03    3    1
        73         1        73    5  0.0000000000E+00  0.9221223812E+04        15    1  0.5986442000E+00  0.6709960000E+00  0.9800000000E+00  0.7299322100E+04  0.1983549800E+05  0.9530224698E+01    1    0      4140    5  0.0000000000E+00  0.2031579446E+00  0.1221664851E+00  0.7000000000E+04  0.1710157897E+05 -0.1877833515E+03    3    1
        74         1        74    5  0.0000000000E+00  0.3108383242E+05        15    1  0.5085188000E+00  0.9438117000E+00  0.9800000000E+00  0.7254259400E+04  0.1997190585E+05  0.9530224698E+01    1    0       984    1  0.6068147855E+00  0.1000000000E+01  0.1000000000E+01  0.4303407393E+04  0.5000000000E+03  0.2904539747E+00    1    4
        75         1        75    5  0.0000000000E+00  0.2798969024E+05        15    1  0.2715884000E+00  0.8586854000E+00  0.9800000000E+00  0.7135794200E+04  0.1992934270E+05  0.9530224698E+01    1    0       984    1  0.6068147855E+00  0.1000000000E+01  0.1000000000E+01  0.4303407393E+04  0.5000000000E+03  0.2904539747E+00    1    4
        76         1        76    5  0.0000000000E+00  0.1804001543E+05        16    1  0.2837666000E+00  0.8691757000E+00  0.9800000000E+00  0.7641883300E+04  0.1993458785E+05  0.9576005188E+01    1    0      4140    5  0.4597661940E-01  0.0000000000E+00  0.7809344528E-02  0.7022988310E+04  0.1700000000E+05 -0.1992190655E+03    3    3
        77         1        77    5  0.0000000000E+00  0.4642023201E+04        16    1  0.4175156000E+00  0.3014771000E+00  0.9800000000E+00  0.7708757800E+04  0.1965073855E+05  0.9576005188E+01    1    0      4140    5  0.0000000000E+00  0.7434361633E+00  0.4900251032E+00  0.7000000000E+04  0.1737171808E+05 -0.1509974897E+03    3    1
        78         1        78    5  0.0000000000E+00  0.7372233699E+04        16    1  0.6982285000E+00  0.7233643000E+00  0.9800000000E+00  0.7849114250E+04  0.1986168215E+05  0.9576005188E+01    1    0      4140    5  0.0000000000E+00  0.5055850551E+00  0.1971717740E+00  0.7000000000E+04  0.1725279253E+05 -0.1802828226E+03    3    1
        79         1        79    5  0.0000000000E+00  0.7598005033E+04        16    1  0.7642102000E+00  0.7451809000E+00  0.9800000000E+00  0.7882105100E+04  0.1987259045E+05  0.9576005188E+01    1    0      4140    5  0.0000000000E+00  0.4949254615E+00  0.1839435006E+00  0.7000000000E+04  0.1724746273E+05 -0.1816056499E+03    3    1
        80         1        80    5  0.0000000000E+00  0.2942670447E+05        16    1  0.2995665000E+00  0.8745084000E+00  0.9800000000E+00  0.7649783250E+04  0.1993725420E+05  0.9576005188E+01    1    0       984    1  0.6068147855E+00  0.1000000000E+01  0.1000000000E+01  0.4303407393E+04  0.5000000000E+03  0.2904539747E+00    1    4
        81         1        81    5  0.0000000000E+00  0.1143395627E+05        17    1  0.1194106000E+00  0.9033763000E+00  0.9800000000E+00  0.8059705300E+04  0.1995168815E+05  0.9614723108E+01    1    0      4140    5  0.0000000000E+00  0.2002943937E+00  0.5843976191E-01  0.7000000000E+04  0.1710014720E+05 -0.1941560238E+03    3    1
        82         1        82    5  0.0000000000E+00  0.7986755140E+04        17    1  0.2338108000E+00  0.8095936000E+00  0.9800000000E+00  0.8116905400E+04  0.1990479680E+05  0.9614723108E+01    1    0      4140    5  0.0000000000E+00  0.5062269203E+00  0.1603644640E+00  0.7000000000E+04  0.1725311346E+05 -0.1839635536E+03    3    1
        83         1        83    5  0.0000000000E+00  0.7328218379E+04        17    1  0.3250452000E+00  0.7909979000E+00  0.9800000000E+00  0.8162522600E+04  0.1989549895E+05  0.9614723108E+01    1    0      4140    5  0.0000000000E+00  0.5561680440E+00  0.1934052341E+00  0.7000000000E+04  0.1727808402E+05 -0.1806594766E+03    3    1
        84         1        84    5  0.0000000000E+00  0.5926905776E+04        17    1  0.9646040000E+00  0.6951880000E+00  0.9800000000E+00  0.8482302000E+04  0.1984759400E+05  0.9614723108E+01    1    0      4140    5  0.0000000000E+00  0.7925819155E+00  0.3159246877E+00  0.7000000000E+04  0.1739629096E+05 -0.1684075312E+03    3    1
        85         1        85    5  0.0000000000E+00  0.3070787762E+05        17    1  0.8800624000E+00  0.9732370000E+00  0.9800000000E+00  0.8440031200E+04  0.1998661850E+05  0.9614723108E+01    1    0       984    1  0.6068147855E+00  0.1000000000E+01  0.1000000000E+01  0.4303407393E+04  0.5000000000E+03  0.2904539747E+00    1    4
        86         1        86    5  0.0000000000E+00  0.6701393424E+04        18    1  0.6099181000E+00  0.7494354000E+00  0.9800000000E+00  0.8804959050E+04  0.1987471770E+05  0.9641423858E+01    1    0      4140    5  0.0000000000E+00  0.7711858854E+00  0.2351737838E+00  0.7000000000E+04  0.1738559294E+05 -0.1764826216E+03    3    1
        87         1        87    5  0.0000000000E+00  0.5081518054E+04        18    1  0.7673281000E+00  0.4836822000E+00  0.9800000000E+00  0.8883664050E+04  0.1974184110E+05  0.9641423858E+01    1    0      4140    5  0.2177624863E-01  0.1000000000E+01  0.4147985583E+00  0.7010888124E+04  0.1750000000E+05 -0.1585201442E+03    3    4