# Name file for MODPATH 7, generated by Flopy version 3.5.0.dev0.
MPBAS      mv_mpa.mpbas
GRBDIS     ..\mv_a\mv.dis.grb
TDIS       ..\mv_a\mv.tdis
HEAD       ..\mv_a\mv.hed
BUDGET     ..\mv_a\mv.bud
