MODPATH_PATHLINE_FILE         7         2
    1   0.0000000000E+00  0.0000000000E+00  0.0000000000E+00  0.0000000000E+00
END HEADER
         1         1         1         2
      1079  0.17639531E+04  0.18350967E+05 -0.27500000E+02  0.00000000E+00  0.52790620E+00  0.70193460E+00  0.50000000E+00         2         1         1
      1079  0.18534403E+04  0.18170911E+05 -0.33592062E+02  0.36500000E+03  0.70688068E+00  0.34182247E+00  0.36462084E+00         2         1         1
         2         1         2         2
      1079  0.17831597E+04  0.18162564E+05 -0.27500000E+02  0.00000000E+00  0.56631940E+00  0.32512700E+00  0.50000000E+00         2         1         1
      1079  0.18656336E+04  0.18075637E+05 -0.33592062E+02  0.36500000E+03  0.73126714E+00  0.15127426E+00  0.36462084E+00         2         1         1
         3         1         3         2
      1079  0.18837384E+04  0.18363366E+05 -0.27500000E+02  0.00000000E+00  0.76747680E+00  0.72673150E+00  0.50000000E+00         2         1         1
      1079  0.19294855E+04  0.18177181E+05 -0.33592062E+02  0.36500000E+03  0.85897110E+00  0.35436204E+00  0.36462084E+00         2         1         1
         4         1         4         2
      1079  0.19586522E+04  0.18160576E+05 -0.27500000E+02  0.00000000E+00  0.91730430E+00  0.32115200E+00  0.50000000E+00         2         1         1
      1079  0.19770442E+04  0.18074632E+05 -0.33592062E+02  0.36500000E+03  0.95408847E+00  0.14926414E+00  0.36462084E+00         2         1         1
         5         1         5         2
      1079  0.18704589E+04  0.18452028E+05 -0.27500000E+02  0.00000000E+00  0.74091790E+00  0.90405610E+00  0.50000000E+00         2         1         1
      1079  0.19210551E+04  0.18222017E+05 -0.33592062E+02  0.36500000E+03  0.84211029E+00  0.44403349E+00  0.36462084E+00         2         1         1
         6         1         6         2
      1080  0.20068954E+04  0.18468279E+05 -0.27500000E+02  0.00000000E+00  0.13790800E-01  0.93655750E+00  0.50000000E+00         2         1         1
      1080  0.20108629E+04  0.18212468E+05 -0.33829154E+02  0.36500000E+03  0.21725790E-01  0.42493596E+00  0.35935213E+00         2         1         1
         7         1         7         2
      1080  0.23817829E+04  0.18333333E+05 -0.27500000E+02  0.00000000E+00  0.76356570E+00  0.66666610E+00  0.50000000E+00         2         1         1
      1080  0.23802619E+04  0.18148762E+05 -0.33829154E+02  0.36500000E+03  0.76052383E+00  0.29752461E+00  0.35935213E+00         2         1         1
         8         1         8         2
      1080  0.22972057E+04  0.18100293E+05 -0.27500000E+02  0.00000000E+00  0.59441140E+00  0.20058590E+00  0.50000000E+00         2         1         1
      1080  0.22969230E+04  0.18038748E+05 -0.33829154E+02  0.36500000E+03  0.59384598E+00  0.77495703E-01  0.35935213E+00         2         1         1
         9         1         9         2
      1080  0.22793840E+04  0.18069156E+05 -0.27500000E+02  0.00000000E+00  0.55876810E+00  0.13831270E+00  0.50000000E+00         2         1         1
      1080  0.22793623E+04  0.18024049E+05 -0.33829154E+02  0.36500000E+03  0.55872451E+00  0.48097536E-01  0.35935213E+00         2         1         1
        10         1        10         2
      1080  0.24246690E+04  0.18043701E+05 -0.27500000E+02  0.00000000E+00  0.84933810E+00  0.87401490E-01  0.50000000E+00         2         1         1
      1080  0.24225203E+04  0.18012032E+05 -0.33829154E+02  0.36500000E+03  0.84504050E+00  0.24063180E-01  0.35935213E+00         2         1         1
        11         1        11         2
      1081  0.27336656E+04  0.18053306E+05 -0.27500000E+02  0.00000000E+00  0.46733110E+00  0.10661230E+00  0.50000000E+00         2         1         1
      1081  0.27216081E+04  0.18011234E+05 -0.33941760E+02  0.36500000E+03  0.44321624E+00  0.22467689E-01  0.35684977E+00         2         1         1
        12         1        12         2
      1081  0.25806242E+04  0.18496485E+05 -0.27500000E+02  0.00000000E+00  0.16124830E+00  0.99297070E+00  0.50000000E+00         2         1         1
      1081  0.25743593E+04  0.18185627E+05 -0.33941760E+02  0.36500000E+03  0.14871852E+00  0.37125383E+00  0.35684977E+00         2         1         1
        13         1        13         2
      1081  0.29984166E+04  0.18373291E+05 -0.27500000E+02  0.00000000E+00  0.99683320E+00  0.74658160E+00  0.50000000E+00         2         1         1
      1081  0.29763385E+04  0.18137149E+05 -0.33941760E+02  0.36500000E+03  0.95267696E+00  0.27429858E+00  0.35684977E+00         2         1         1
        14         1        14         2
      1081  0.26711554E+04  0.18382603E+05 -0.27500000E+02  0.00000000E+00  0.34231080E+00  0.76520560E+00  0.50000000E+00         2         1         1
      1081  0.26614639E+04  0.18140814E+05 -0.33941760E+02  0.36500000E+03  0.32292790E+00  0.28162721E+00  0.35684977E+00         2         1         1
        15         1        15         3
      1081  0.26244044E+04  0.18019412E+05 -0.27500000E+02  0.00000000E+00  0.24880870E+00  0.38824600E-01  0.50000000E+00         2         1         1
      1081  0.26176551E+04  0.18000000E+05 -0.32865694E+02  0.31007067E+03  0.23531027E+00  0.00000000E+00  0.38076236E+00         2         1         1
      1106  0.26170057E+04  0.17997750E+05 -0.33999736E+02  0.36500000E+03  0.23401147E+00  0.99550036E+00  0.35556141E+00         2         1         1
        16         1        16         2
      1082  0.33470826E+04  0.18318837E+05 -0.27500000E+02  0.00000000E+00  0.69416520E+00  0.63767450E+00  0.50000000E+00         2         1         1
      1082  0.30819923E+04  0.18096756E+05 -0.34081955E+02  0.36500000E+03  0.16398461E+00  0.19351176E+00  0.35373433E+00         2         1         1
        17         1        17         2
      1082  0.31970395E+04  0.18280253E+05 -0.27500000E+02  0.00000000E+00  0.39407910E+00  0.56050670E+00  0.50000000E+00         2         1         1
      1082  0.30410871E+04  0.18083496E+05 -0.34081955E+02  0.36500000E+03  0.82174181E-01  0.16699223E+00  0.35373433E+00         2         1         1
        18         1        18         2
      1082  0.32513107E+04  0.18085625E+05 -0.27500000E+02  0.00000000E+00  0.50262130E+00  0.17124970E+00  0.50000000E+00         2         1         1
      1082  0.30558827E+04  0.18016610E+05 -0.34081955E+02  0.36500000E+03  0.11176530E+00  0.33219982E-01  0.35373433E+00         2         1         1
        19         1        19         2
      1082  0.31777120E+04  0.18360083E+05 -0.27500000E+02  0.00000000E+00  0.35542400E+00  0.72016660E+00  0.50000000E+00         2         1         1
      1082  0.30358180E+04  0.18110931E+05 -0.34081955E+02  0.36500000E+03  0.71635905E-01  0.22186103E+00  0.35373433E+00         2         1         1
        20         1        20         2
      1082  0.34911134E+04  0.18060878E+05 -0.27500000E+02  0.00000000E+00  0.98222670E+00  0.12175550E+00  0.50000000E+00         2         1         1
      1082  0.31212584E+04  0.18008105E+05 -0.34081955E+02  0.36500000E+03  0.24251685E+00  0.16210781E-01  0.35373433E+00         2         1         1
        21         1        21         2
      1103  0.13226700E+04  0.17730901E+05 -0.27500000E+02  0.00000000E+00  0.64534000E+00  0.46180190E+00  0.50000000E+00         2         1         1
      1103  0.14011163E+04  0.17642493E+05 -0.33842125E+02  0.36500000E+03  0.80223267E+00  0.28498530E+00  0.35906388E+00         2         1         1
        22         1        22         2
      1103  0.13473987E+04  0.17638847E+05 -0.27500000E+02  0.00000000E+00  0.69479740E+00  0.27769450E+00  0.50000000E+00         2         1         1
      1103  0.14157442E+04  0.17584114E+05 -0.33842125E+02  0.36500000E+03  0.83148833E+00  0.16822876E+00  0.35906388E+00         2         1         1
        23         1        23         2
      1103  0.11513247E+04  0.17886198E+05 -0.27500000E+02  0.00000000E+00  0.30264930E+00  0.77239540E+00  0.50000000E+00         2         1         1
      1103  0.12997600E+04  0.17740978E+05 -0.33842125E+02  0.36500000E+03  0.59952002E+00  0.48195631E+00  0.35906388E+00         2         1         1
        24         1        24         2
      1103  0.13303877E+04  0.17782458E+05 -0.27500000E+02  0.00000000E+00  0.66077540E+00  0.56491640E+00  0.50000000E+00         2         1         1
      1103  0.14056816E+04  0.17675189E+05 -0.33842125E+02  0.36500000E+03  0.81136321E+00  0.35037806E+00  0.35906388E+00         2         1         1
        25         1        25         2
      1103  0.14084060E+04  0.17643240E+05 -0.27500000E+02  0.00000000E+00  0.81681200E+00  0.28647920E+00  0.50000000E+00         2         1         1
      1103  0.14518320E+04  0.17586900E+05 -0.33842125E+02  0.36500000E+03  0.90366392E+00  0.17379981E+00  0.35906388E+00         2         1         1
        26         1        26         2
      1104  0.19635508E+04  0.17996388E+05 -0.27500000E+02  0.00000000E+00  0.92710160E+00  0.99277540E+00  0.50000000E+00         2         1         1
      1104  0.19642631E+04  0.17987466E+05 -0.33994858E+02  0.36500000E+03  0.92852613E+00  0.97493284E+00  0.35566983E+00         2         1         1
        27         1        27         2
      1104  0.15674884E+04  0.17613287E+05 -0.27500000E+02  0.00000000E+00  0.13497680E+00  0.22657410E+00  0.50000000E+00         2         1         1
      1104  0.15741459E+04  0.17610979E+05 -0.33994858E+02  0.36500000E+03  0.14829186E+00  0.22195717E+00  0.35566983E+00         2         1         1
        28         1        28         2
      1104  0.16256977E+04  0.17712354E+05 -0.27500000E+02  0.00000000E+00  0.25139540E+00  0.42470760E+00  0.50000000E+00         2         1         1
      1104  0.16314815E+04  0.17708335E+05 -0.33994858E+02  0.36500000E+03  0.26296291E+00  0.41667063E+00  0.35566983E+00         2         1         1
        29         1        29         2
      1104  0.16923369E+04  0.17905640E+05 -0.27500000E+02  0.00000000E+00  0.38467380E+00  0.81128050E+00  0.50000000E+00         2         1         1
      1104  0.16971203E+04  0.17898285E+05 -0.33994858E+02  0.36500000E+03  0.39424067E+00  0.79657078E+00  0.35566983E+00         2         1         1
        30         1        30         2
      1104  0.17970960E+04  0.17749802E+05 -0.27500000E+02  0.00000000E+00  0.59419200E+00  0.49960450E+00  0.50000000E+00         2         1         1
      1104  0.18003069E+04  0.17745137E+05 -0.33994858E+02  0.36500000E+03  0.60061381E+00  0.49027471E+00  0.35566983E+00         2         1         1
        31         1        31         2
      1105  0.21298050E+04  0.17504908E+05 -0.27500000E+02  0.00000000E+00  0.25961010E+00  0.98163670E-02  0.50000000E+00         2         1         1
      1105  0.21297933E+04  0.17504157E+05 -0.34209777E+02  0.36500000E+03  0.25958654E+00  0.83135648E-02  0.35089384E+00         2         1         1
        32         1        32         2
      1105  0.21089947E+04  0.17665080E+05 -0.27500000E+02  0.00000000E+00  0.21798940E+00  0.33016010E+00  0.50000000E+00         2         1         1
      1105  0.21090115E+04  0.17660662E+05 -0.34209777E+02  0.36500000E+03  0.21802293E+00  0.32132373E+00  0.35089384E+00         2         1         1
        33         1        33         2
      1105  0.20001228E+04  0.17648541E+05 -0.27500000E+02  0.00000000E+00  0.24561450E-03  0.29708170E+00  0.50000000E+00         2         1         1
      1105  0.20002889E+04  0.17644501E+05 -0.34209777E+02  0.36500000E+03  0.57781110E-03  0.28900259E+00  0.35089384E+00         2         1         1
        34         1        34         2
      1105  0.24239079E+04  0.17782407E+05 -0.27500000E+02  0.00000000E+00  0.84781580E+00  0.56481430E+00  0.50000000E+00         2         1         1
      1105  0.24234927E+04  0.17775303E+05 -0.34209777E+02  0.36500000E+03  0.84698545E+00  0.55060603E+00  0.35089384E+00         2         1         1
        35         1        35         2
      1105  0.22097276E+04  0.17644726E+05 -0.27500000E+02  0.00000000E+00  0.41945530E+00  0.28945250E+00  0.50000000E+00         2         1         1
      1105  0.22096062E+04  0.17640774E+05 -0.34209777E+02  0.36500000E+03  0.41921250E+00  0.28154804E+00  0.35089384E+00         2         1         1
        36         1        36         2
      1106  0.26033337E+04  0.17585452E+05 -0.27500000E+02  0.00000000E+00  0.20666730E+00  0.17090410E+00  0.50000000E+00         2         1         1
      1106  0.25995330E+04  0.17582258E+05 -0.34329191E+02  0.36500000E+03  0.19906597E+00  0.16451553E+00  0.34824019E+00         2         1         1
        37         1        37         2
      1106  0.29318589E+04  0.17690185E+05 -0.27500000E+02  0.00000000E+00  0.86371770E+00  0.38036980E+00  0.50000000E+00         2         1         1
      1106  0.29176013E+04  0.17684066E+05 -0.34329191E+02  0.36500000E+03  0.83520266E+00  0.36813139E+00  0.34824019E+00         2         1         1
        38         1        38         2
      1106  0.29631070E+04  0.17570742E+05 -0.27500000E+02  0.00000000E+00  0.92621400E+00  0.14148430E+00  0.50000000E+00         2         1         1
      1106  0.29478549E+04  0.17567959E+05 -0.34329191E+02  0.36500000E+03  0.89570972E+00  0.13591735E+00  0.34824019E+00         2         1         1
        39         1        39         2
      1106  0.25012069E+04  0.17697689E+05 -0.27500000E+02  0.00000000E+00  0.24138380E-02  0.39537780E+00  0.50000000E+00         2         1         1
      1106  0.25006569E+04  0.17691360E+05 -0.34329191E+02  0.36500000E+03  0.13138355E-02  0.38272026E+00  0.34824019E+00         2         1         1
        40         1        40         2
      1106  0.26881300E+04  0.17573331E+05 -0.27500000E+02  0.00000000E+00  0.37626010E+00  0.14666100E+00  0.50000000E+00         2         1         1
      1106  0.26816303E+04  0.17570475E+05 -0.34329191E+02  0.36500000E+03  0.36326068E+00  0.14094948E+00  0.34824019E+00         2         1         1
        41         1        41         2
      1107  0.30928404E+04  0.17954068E+05 -0.27500000E+02  0.00000000E+00  0.18568080E+00  0.90813580E+00  0.50000000E+00         2         1         1
      1107  0.30218558E+04  0.17935115E+05 -0.34470403E+02  0.36500000E+03  0.43711653E-01  0.87022914E+00  0.34510215E+00         2         1         1
        42         1        42         2
      1107  0.33639913E+04  0.17571832E+05 -0.27500000E+02  0.00000000E+00  0.72798270E+00  0.14366390E+00  0.50000000E+00         2         1         1
      1107  0.31157409E+04  0.17565769E+05 -0.34470403E+02  0.36500000E+03  0.23148189E+00  0.13153884E+00  0.34510215E+00         2         1         1
        43         1        43         2
      1107  0.32747310E+04  0.17719345E+05 -0.27500000E+02  0.00000000E+00  0.54946200E+00  0.43869000E+00  0.50000000E+00         2         1         1
      1107  0.30848348E+04  0.17708308E+05 -0.34470403E+02  0.36500000E+03  0.16966969E+00  0.41661527E+00  0.34510215E+00         2         1         1
        44         1        44         2
      1107  0.30698452E+04  0.17939145E+05 -0.27500000E+02  0.00000000E+00  0.13969040E+00  0.87829090E+00  0.50000000E+00         2         1         1
      1107  0.30138938E+04  0.17920695E+05 -0.34470403E+02  0.36500000E+03  0.27787630E-01  0.84139075E+00  0.34510215E+00         2         1         1
        45         1        45         2
      1107  0.30431057E+04  0.17555145E+05 -0.27500000E+02  0.00000000E+00  0.86211380E-01  0.11028990E+00  0.50000000E+00         2         1         1
      1107  0.30046353E+04  0.17549645E+05 -0.34470403E+02  0.36500000E+03  0.92706960E-02  0.99290365E-01  0.34510215E+00         2         1         1
        46         1        46         2
      1128  0.14240861E+04  0.17465190E+05 -0.27500000E+02  0.00000000E+00  0.84817220E+00  0.93038000E+00  0.50000000E+00         2         1         1
      1128  0.14510365E+04  0.17460570E+05 -0.34367999E+02  0.36500000E+03  0.90207300E+00  0.92114034E+00  0.34737780E+00         2         1         1
        47         1        47         2
      1128  0.12139349E+04  0.17490644E+05 -0.27500000E+02  0.00000000E+00  0.42786990E+00  0.98128720E+00  0.50000000E+00         2         1         1
      1128  0.13081870E+04  0.17485830E+05 -0.34367999E+02  0.36500000E+03  0.61637408E+00  0.97165917E+00  0.34737780E+00         2         1         1
        48         1        48         2
      1128  0.13922780E+04  0.17221457E+05 -0.27500000E+02  0.00000000E+00  0.78455600E+00  0.44291450E+00  0.50000000E+00         2         1         1
      1128  0.14294151E+04  0.17218697E+05 -0.34367999E+02  0.36500000E+03  0.85883012E+00  0.43739371E+00  0.34737780E+00         2         1         1
        49         1        49         2
      1128  0.13202985E+04  0.17314909E+05 -0.27500000E+02  0.00000000E+00  0.64059700E+00  0.62981770E+00  0.50000000E+00         2         1         1
      1128  0.13804873E+04  0.17311436E+05 -0.34367999E+02  0.36500000E+03  0.76097453E+00  0.62287103E+00  0.34737780E+00         2         1         1
        50         1        50         2
      1128  0.14781954E+04  0.17240149E+05 -0.27500000E+02  0.00000000E+00  0.95639080E+00  0.48029770E+00  0.50000000E+00         2         1         1
      1128  0.14878171E+04  0.17237246E+05 -0.34367999E+02  0.36500000E+03  0.97563419E+00  0.47449172E+00  0.34737780E+00         2         1         1
        51         1        51         2
      1129  0.16240381E+04  0.17225642E+05 -0.27500000E+02  0.00000000E+00  0.24807630E+00  0.45128490E+00  0.50000000E+00         2         1         1
      1129  0.16264528E+04  0.17225379E+05 -0.34516576E+02  0.36500000E+03  0.25290562E+00  0.45075883E+00  0.34407610E+00         2         1         1
        52         1        52         2
      1129  0.15327258E+04  0.17196003E+05 -0.27500000E+02  0.00000000E+00  0.65451540E-01  0.39200690E+00  0.50000000E+00         2         1         1
      1129  0.15356972E+04  0.17195750E+05 -0.34516576E+02  0.36500000E+03  0.71394415E-01  0.39150092E+00  0.34407610E+00         2         1         1
        53         1        53         2
      1129  0.19491411E+04  0.17019449E+05 -0.27500000E+02  0.00000000E+00  0.89828220E+00  0.38897470E-01  0.50000000E+00         2         1         1
      1129  0.19495734E+04  0.17019256E+05 -0.34516576E+02  0.36500000E+03  0.89914688E+00  0.38511155E-01  0.34407610E+00         2         1         1
        54         1        54         2
      1129  0.18965776E+04  0.17116336E+05 -0.27500000E+02  0.00000000E+00  0.79315530E+00  0.23267270E+00  0.50000000E+00         2         1         1
      1129  0.18973305E+04  0.17116110E+05 -0.34516576E+02  0.36500000E+03  0.79466099E+00  0.23222072E+00  0.34407610E+00         2         1         1
        55         1        55         2
      1129  0.16023796E+04  0.17027553E+05 -0.27500000E+02  0.00000000E+00  0.20475910E+00  0.55106450E-01  0.50000000E+00         2         1         1
      1129  0.16049263E+04  0.17027357E+05 -0.34516576E+02  0.36500000E+03  0.20985255E+00  0.54714642E-01  0.34407610E+00         2         1         1
        56         1        56         2
      1130  0.24741490E+04  0.17415472E+05 -0.27500000E+02  0.00000000E+00  0.94829800E+00  0.83094480E+00  0.50000000E+00         2         1         1
      1130  0.24738264E+04  0.17414882E+05 -0.34708564E+02  0.36500000E+03  0.94765278E+00  0.82976359E+00  0.33980969E+00         2         1         1
        57         1        57         2
      1130  0.24169657E+04  0.17237638E+05 -0.27500000E+02  0.00000000E+00  0.83393130E+00  0.47527670E+00  0.50000000E+00         2         1         1
      1130  0.24166967E+04  0.17237165E+05 -0.34708564E+02  0.36500000E+03  0.83339345E+00  0.47432965E+00  0.33980969E+00         2         1         1
        58         1        58         2
      1130  0.22589480E+04  0.17322146E+05 -0.27500000E+02  0.00000000E+00  0.51789600E+00  0.64429270E+00  0.50000000E+00         2         1         1
      1130  0.22588274E+04  0.17321617E+05 -0.34708564E+02  0.36500000E+03  0.51765486E+00  0.64323437E+00  0.33980969E+00         2         1         1
        59         1        59         2
      1130  0.23912438E+04  0.17480960E+05 -0.27500000E+02  0.00000000E+00  0.78248750E+00  0.96192000E+00  0.50000000E+00         2         1         1
      1130  0.23909990E+04  0.17480326E+05 -0.34708564E+02  0.36500000E+03  0.78199795E+00  0.96065256E+00  0.33980969E+00         2         1         1
        60         1        60         2
      1130  0.23271291E+04  0.17004338E+05 -0.27500000E+02  0.00000000E+00  0.65425810E+00  0.86760830E-02  0.50000000E+00         2         1         1
      1130  0.23269445E+04  0.17004018E+05 -0.34708564E+02  0.36500000E+03  0.65388894E+00  0.80362201E-02  0.33980969E+00         2         1         1
        61         1        61         2
      1131  0.29040041E+04  0.17289673E+05 -0.27500000E+02  0.00000000E+00  0.80800830E+00  0.57934610E+00  0.50000000E+00         2         1         1
      1131  0.28929287E+04  0.17289018E+05 -0.34848697E+02  0.36500000E+03  0.78585732E+00  0.57803555E+00  0.33669562E+00         2         1         1
        62         1        62         2
      1131  0.29921633E+04  0.17029172E+05 -0.27500000E+02  0.00000000E+00  0.98432650E+00  0.58344040E-01  0.50000000E+00         2         1         1
      1131  0.29787457E+04  0.17028720E+05 -0.34848697E+02  0.36500000E+03  0.95749132E+00  0.57439083E-01  0.33669562E+00         2         1         1
        63         1        63         2
      1131  0.28494255E+04  0.17413576E+05 -0.27500000E+02  0.00000000E+00  0.69885090E+00  0.82715300E+00  0.50000000E+00         2         1         1
      1131  0.28397999E+04  0.17412825E+05 -0.34848697E+02  0.36500000E+03  0.67959988E+00  0.82564954E+00  0.33669562E+00         2         1         1
        64         1        64         2
      1131  0.29424075E+04  0.17429208E+05 -0.27500000E+02  0.00000000E+00  0.88481490E+00  0.85841690E+00  0.50000000E+00         2         1         1
      1131  0.29303117E+04  0.17428445E+05 -0.34848697E+02  0.36500000E+03  0.86062342E+00  0.85688910E+00  0.33669562E+00         2         1         1
        65         1        65         2
      1131  0.26722854E+04  0.17440994E+05 -0.27500000E+02  0.00000000E+00  0.34457080E+00  0.88198740E+00  0.50000000E+00         2         1         1
      1131  0.26673659E+04  0.17440221E+05 -0.34848697E+02  0.36500000E+03  0.33473185E+00  0.88044125E+00  0.33669562E+00         2         1         1
        66         1        66         2
      1132  0.33258309E+04  0.17323257E+05 -0.27500000E+02  0.00000000E+00  0.65166180E+00  0.64651350E+00  0.50000000E+00         2         1         1
      1132  0.31255954E+04  0.17319847E+05 -0.35002463E+02  0.36500000E+03  0.25119074E+00  0.63969361E+00  0.33327860E+00         2         1         1
        67         1        67         2
      1132  0.31261914E+04  0.17153740E+05 -0.27500000E+02  0.00000000E+00  0.25238280E+00  0.30747980E+00  0.50000000E+00         2         1         1
      1132  0.30430217E+04  0.17150608E+05 -0.35002463E+02  0.36500000E+03  0.86043320E-01  0.30121588E+00  0.33327860E+00         2         1         1
        68         1        68         2
      1132  0.30833432E+04  0.17104858E+05 -0.27500000E+02  0.00000000E+00  0.16668640E+00  0.20971570E+00  0.50000000E+00         2         1         1
      1132  0.30252990E+04  0.17101806E+05 -0.35002463E+02  0.36500000E+03  0.50598081E-01  0.20361210E+00  0.33327860E+00         2         1         1
        69         1        69         2
      1132  0.30922492E+04  0.17254391E+05 -0.27500000E+02  0.00000000E+00  0.18449850E+00  0.50878240E+00  0.50000000E+00         2         1         1
      1132  0.30289827E+04  0.17251094E+05 -0.35002463E+02  0.36500000E+03  0.57965416E-01  0.50218837E+00  0.33327860E+00         2         1         1
        70         1        70         2
      1132  0.33078778E+04  0.17346592E+05 -0.27500000E+02  0.00000000E+00  0.61575570E+00  0.69318460E+00  0.50000000E+00         2         1         1
      1132  0.31181697E+04  0.17343144E+05 -0.35002463E+02  0.36500000E+03  0.23633947E+00  0.68628818E+00  0.33327860E+00         2         1         1
        71         1        71         2
      1153  0.13676719E+04  0.16948504E+05 -0.27500000E+02  0.00000000E+00  0.73534380E+00  0.89700760E+00  0.50000000E+00         2         1         1
      1153  0.14023210E+04  0.16947424E+05 -0.35026384E+02  0.36500000E+03  0.80464210E+00  0.89484845E+00  0.33274703E+00         2         1         1
        72         1        72         2
      1153  0.10082123E+04  0.16829724E+05 -0.27500000E+02  0.00000000E+00  0.16424630E-01  0.65944750E+00  0.50000000E+00         2         1         1
      1153  0.11315610E+04  0.16828634E+05 -0.35026384E+02  0.36500000E+03  0.26312201E+00  0.65726747E+00  0.33274703E+00         2         1         1
        73         1        73         2
      1153  0.14940839E+04  0.16534297E+05 -0.27500000E+02  0.00000000E+00  0.98816790E+00  0.68594590E-01  0.50000000E+00         2         1         1
      1153  0.14975399E+04  0.16533181E+05 -0.35026384E+02  0.36500000E+03  0.99507982E+00  0.66362639E-01  0.33274703E+00         2         1         1
        74         1        74         2
      1153  0.10835129E+04  0.16531300E+05 -0.27500000E+02  0.00000000E+00  0.16702580E+00  0.62600610E-01  0.50000000E+00         2         1         1
      1153  0.11882806E+04  0.16530184E+05 -0.35026384E+02  0.36500000E+03  0.37656113E+00  0.60368132E-01  0.33274703E+00         2         1         1
        75         1        75         2
      1153  0.14875917E+04  0.16543595E+05 -0.27500000E+02  0.00000000E+00  0.97518340E+00  0.87190200E-01  0.50000000E+00         2         1         1
      1153  0.14926497E+04  0.16542480E+05 -0.35026384E+02  0.36500000E+03  0.98529935E+00  0.84959883E-01  0.33274703E+00         2         1         1
        76         1        76         2
      1154  0.18408316E+04  0.16691391E+05 -0.27500000E+02  0.00000000E+00  0.68166310E+00  0.38278250E+00  0.50000000E+00         2         1         1
      1154  0.18416176E+04  0.16691182E+05 -0.35139901E+02  0.36500000E+03  0.68323530E+00  0.38236311E+00  0.33022441E+00         2         1         1
        77         1        77         2
      1154  0.17532507E+04  0.16733430E+05 -0.27500000E+02  0.00000000E+00  0.50650140E+00  0.46686020E+00  0.50000000E+00         2         1         1
      1154  0.17544225E+04  0.16733224E+05 -0.35139901E+02  0.36500000E+03  0.50884507E+00  0.46644710E+00  0.33022441E+00         2         1         1
        78         1        78         2
      1154  0.17045550E+04  0.16717863E+05 -0.27500000E+02  0.00000000E+00  0.40911000E+00  0.43572600E+00  0.50000000E+00         2         1         1
      1154  0.17059413E+04  0.16717655E+05 -0.35139901E+02  0.36500000E+03  0.41188261E+00  0.43531057E+00  0.33022441E+00         2         1         1
        79         1        79         2
      1154  0.17146168E+04  0.16724893E+05 -0.27500000E+02  0.00000000E+00  0.42923360E+00  0.44978670E+00  0.50000000E+00         2         1         1
      1154  0.17159588E+04  0.16724686E+05 -0.35139901E+02  0.36500000E+03  0.43191758E+00  0.44937232E+00  0.33022441E+00         2         1         1
        80         1        80         2
      1154  0.19472071E+04  0.16998657E+05 -0.27500000E+02  0.00000000E+00  0.89441420E+00  0.99731470E+00  0.50000000E+00         2         1         1
      1154  0.19475247E+04  0.16998471E+05 -0.35139901E+02  0.36500000E+03  0.89504937E+00  0.99694129E+00  0.33022441E+00         2         1         1
        81         1        81         2
      1155  0.24771827E+04  0.16593959E+05 -0.27500000E+02  0.00000000E+00  0.95436540E+00  0.18791810E+00  0.50000000E+00         2         1         1
      1155  0.24769631E+04  0.16593680E+05 -0.35269209E+02  0.36500000E+03  0.95392613E+00  0.18736090E+00  0.32735092E+00         2         1         1
        82         1        82         2
      1155  0.20228105E+04  0.16949876E+05 -0.27500000E+02  0.00000000E+00  0.45620970E-01  0.89975140E+00  0.50000000E+00         2         1         1
      1155  0.20228811E+04  0.16949563E+05 -0.35269209E+02  0.36500000E+03  0.45762282E-01  0.89912659E+00  0.32735092E+00         2         1         1
        83         1        83         2
      1155  0.20122249E+04  0.16556313E+05 -0.27500000E+02  0.00000000E+00  0.24449800E-01  0.11262660E+00  0.50000000E+00         2         1         1
      1155  0.20123023E+04  0.16556038E+05 -0.35269209E+02  0.36500000E+03  0.24604638E-01  0.11207655E+00  0.32735092E+00         2         1         1
        84         1        84         2
      1155  0.22200178E+04  0.16959128E+05 -0.27500000E+02  0.00000000E+00  0.44003560E+00  0.91825690E+00  0.50000000E+00         2         1         1
      1155  0.22199625E+04  0.16958815E+05 -0.35269209E+02  0.36500000E+03  0.43992493E+00  0.91763033E+00  0.32735092E+00         2         1         1
        85         1        85         2
      1155  0.20460120E+04  0.16702568E+05 -0.27500000E+02  0.00000000E+00  0.92023970E-01  0.40513570E+00  0.50000000E+00         2         1         1