# Name file for MODPATH 7, generated by Flopy version 3.3.7.
MPBAS      mv_mpb.mpbas
GRBDIS     ..\mv_b\mv.dis.grb
TDIS       ..\mv_b\mv.tdis
HEAD       ..\mv_b\mv.hed
BUDGET     ..\mv_b\mv.bud
