MODPATH_ENDPOINT_FILE         7         2
    1       615       615       525   0.0000000000E+00  0.0000000000E+00  0.0000000000E+00  0.0000000000E+00
       0     609       0       0       0       6       0       0       0       0
         2
LMcD            
StRiv           
END HEADER
         1         1         1    1  0.0000000000E+00  0.3650000000E+03      1079    2  0.5279062000E+00  0.7019346000E+00  0.5000000000E+00  0.1763953100E+04  0.1835096730E+05 -0.2750000000E+02    1    0      1079    2  0.7068806780E+00  0.3418224676E+00  0.3646208432E+00  0.1853440339E+04  0.1817091123E+05 -0.3359206206E+02    1    0
         2         1         2    1  0.0000000000E+00  0.3650000000E+03      1079    2  0.5663194000E+00  0.3251270000E+00  0.5000000000E+00  0.1783159700E+04  0.1816256350E+05 -0.2750000000E+02    1    0      1079    2  0.7312671414E+00  0.1512742574E+00  0.3646208432E+00  0.1865633571E+04  0.1807563713E+05 -0.3359206206E+02    1    0
         3         1         3    1  0.0000000000E+00  0.3650000000E+03      1079    2  0.7674768000E+00  0.7267315000E+00  0.5000000000E+00  0.1883738400E+04  0.1836336575E+05 -0.2750000000E+02    1    0      1079    2  0.8589710967E+00  0.3543620366E+00  0.3646208432E+00  0.1929485548E+04  0.1817718102E+05 -0.3359206206E+02    1    0
         4         1         4    1  0.0000000000E+00  0.3650000000E+03      1079    2  0.9173043000E+00  0.3211520000E+00  0.5000000000E+00  0.1958652150E+04  0.1816057600E+05 -0.2750000000E+02    1    0      1079    2  0.9540884742E+00  0.1492641357E+00  0.3646208432E+00  0.1977044237E+04  0.1807463207E+05 -0.3359206206E+02    1    0
         5         1         5    1  0.0000000000E+00  0.3650000000E+03      1079    2  0.7409179000E+00  0.9040561000E+00  0.5000000000E+00  0.1870458950E+04  0.1845202805E+05 -0.2750000000E+02    1    0      1079    2  0.8421102873E+00  0.4440334901E+00  0.3646208432E+00  0.1921055144E+04  0.1822201675E+05 -0.3359206206E+02    1    0
         6         1         6    1  0.0000000000E+00  0.3650000000E+03      1080    2  0.1379080000E-01  0.9365575000E+00  0.5000000000E+00  0.2006895400E+04  0.1846827875E+05 -0.2750000000E+02    1    0      1080    2  0.2172578977E-01  0.4249359575E+00  0.3593521332E+00  0.2010862895E+04  0.1821246798E+05 -0.3382915400E+02    1    0
         7         1         7    1  0.0000000000E+00  0.3650000000E+03      1080    2  0.7635657000E+00  0.6666661000E+00  0.5000000000E+00  0.2381782850E+04  0.1833333305E+05 -0.2750000000E+02    1    0      1080    2  0.7605238285E+00  0.2975246055E+00  0.3593521332E+00  0.2380261914E+04  0.1814876230E+05 -0.3382915400E+02    1    0
         8         1         8    1  0.0000000000E+00  0.3650000000E+03      1080    2  0.5944114000E+00  0.2005859000E+00  0.5000000000E+00  0.2297205700E+04  0.1810029295E+05 -0.2750000000E+02    1    0      1080    2  0.5938459828E+00  0.7749570349E-01  0.3593521332E+00  0.2296922991E+04  0.1803874785E+05 -0.3382915400E+02    1    0
         9         1         9    1  0.0000000000E+00  0.3650000000E+03      1080    2  0.5587681000E+00  0.1383127000E+00  0.5000000000E+00  0.2279384050E+04  0.1806915635E+05 -0.2750000000E+02    1    0      1080    2  0.5587245082E+00  0.4809753592E-01  0.3593521332E+00  0.2279362254E+04  0.1802404877E+05 -0.3382915400E+02    1    0
        10         1        10    1  0.0000000000E+00  0.3650000000E+03      1080    2  0.8493381000E+00  0.8740149000E-01  0.5000000000E+00  0.2424669050E+04  0.1804370075E+05 -0.2750000000E+02    1    0      1080    2  0.8450405026E+00  0.2406317953E-01  0.3593521332E+00  0.2422520251E+04  0.1801203159E+05 -0.3382915400E+02    1    0
        11         1        11    1  0.0000000000E+00  0.3650000000E+03      1081    2  0.4673311000E+00  0.1066123000E+00  0.5000000000E+00  0.2733665550E+04  0.1805330615E+05 -0.2750000000E+02    1    0      1081    2  0.4432162426E+00  0.2246768901E-01  0.3568497726E+00  0.2721608121E+04  0.1801123384E+05 -0.3394176023E+02    1    0
        12         1        12    1  0.0000000000E+00  0.3650000000E+03      1081    2  0.1612483000E+00  0.9929707000E+00  0.5000000000E+00  0.2580624150E+04  0.1849648535E+05 -0.2750000000E+02    1    0      1081    2  0.1487185208E+00  0.3712538285E+00  0.3568497726E+00  0.2574359260E+04  0.1818562691E+05 -0.3394176023E+02    1    0
        13         1        13    1  0.0000000000E+00  0.3650000000E+03      1081    2  0.9968332000E+00  0.7465816000E+00  0.5000000000E+00  0.2998416600E+04  0.1837329080E+05 -0.2750000000E+02    1    0      1081    2  0.9526769575E+00  0.2742985754E+00  0.3568497726E+00  0.2976338479E+04  0.1813714929E+05 -0.3394176023E+02    1    0
        14         1        14    1  0.0000000000E+00  0.3650000000E+03      1081    2  0.3423108000E+00  0.7652056000E+00  0.5000000000E+00  0.2671155400E+04  0.1838260280E+05 -0.2750000000E+02    1    0      1081    2  0.3229278973E+00  0.2816272057E+00  0.3568497726E+00  0.2661463949E+04  0.1814081360E+05 -0.3394176023E+02    1    0
        15         1        15    1  0.0000000000E+00  0.3650000000E+03      1081    2  0.2488087000E+00  0.3882460000E-01  0.5000000000E+00  0.2624404350E+04  0.1801941230E+05 -0.2750000000E+02    1    0      1106    2  0.2340114670E+00  0.9955003592E+00  0.3555614125E+00  0.2617005734E+04  0.1799775018E+05 -0.3399973644E+02    1    0
        16         1        16    1  0.0000000000E+00  0.3650000000E+03      1082    2  0.6941652000E+00  0.6376745000E+00  0.5000000000E+00  0.3347082600E+04  0.1831883725E+05 -0.2750000000E+02    1    0      1082    2  0.1639846066E+00  0.1935117586E+00  0.3537343286E+00  0.3081992303E+04  0.1809675588E+05 -0.3408195521E+02    1    0
        17         1        17    1  0.0000000000E+00  0.3650000000E+03      1082    2  0.3940791000E+00  0.5605067000E+00  0.5000000000E+00  0.3197039550E+04  0.1828025335E+05 -0.2750000000E+02    1    0      1082    2  0.8217418092E-01  0.1669922344E+00  0.3537343286E+00  0.3041087090E+04  0.1808349612E+05 -0.3408195521E+02    1    0
        18         1        18    1  0.0000000000E+00  0.3650000000E+03      1082    2  0.5026213000E+00  0.1712497000E+00  0.5000000000E+00  0.3251310650E+04  0.1808562485E+05 -0.2750000000E+02    1    0      1082    2  0.1117653002E+00  0.3321998178E-01  0.3537343286E+00  0.3055882650E+04  0.1801660999E+05 -0.3408195521E+02    1    0
        19         1        19    1  0.0000000000E+00  0.3650000000E+03      1082    2  0.3554240000E+00  0.7201666000E+00  0.5000000000E+00  0.3177712000E+04  0.1836008330E+05 -0.2750000000E+02    1    0      1082    2  0.7163590479E-01  0.2218610344E+00  0.3537343286E+00  0.3035817952E+04  0.1811093052E+05 -0.3408195521E+02    1    0
        20         1        20    1  0.0000000000E+00  0.3650000000E+03      1082    2  0.9822267000E+00  0.1217555000E+00  0.5000000000E+00  0.3491113350E+04  0.1806087775E+05 -0.2750000000E+02    1    0      1082    2  0.2425168476E+00  0.1621078060E-01  0.3537343286E+00  0.3121258424E+04  0.1800810539E+05 -0.3408195521E+02    1    0
        21         1        21    1  0.0000000000E+00  0.3650000000E+03      1103    2  0.6453400000E+00  0.4618019000E+00  0.5000000000E+00  0.1322670000E+04  0.1773090095E+05 -0.2750000000E+02    1    0      1103    2  0.8022326728E+00  0.2849852959E+00  0.3590638842E+00  0.1401116336E+04  0.1764249265E+05 -0.3384212521E+02    1    0
        22         1        22    1  0.0000000000E+00  0.3650000000E+03      1103    2  0.6947974000E+00  0.2776945000E+00  0.5000000000E+00  0.1347398700E+04  0.1763884725E+05 -0.2750000000E+02    1    0      1103    2  0.8314883277E+00  0.1682287584E+00  0.3590638842E+00  0.1415744164E+04  0.1758411438E+05 -0.3384212521E+02    1    0
        23         1        23    1  0.0000000000E+00  0.3650000000E+03      1103    2  0.3026493000E+00  0.7723954000E+00  0.5000000000E+00  0.1151324650E+04  0.1788619770E+05 -0.2750000000E+02    1    0      1103    2  0.5995200179E+00  0.4819563118E+00  0.3590638842E+00  0.1299760009E+04  0.1774097816E+05 -0.3384212521E+02    1    0
        24         1        24    1  0.0000000000E+00  0.3650000000E+03      1103    2  0.6607754000E+00  0.5649164000E+00  0.5000000000E+00  0.1330387700E+04  0.1778245820E+05 -0.2750000000E+02    1    0      1103    2  0.8113632121E+00  0.3503780611E+00  0.3590638842E+00  0.1405681606E+04  0.1767518903E+05 -0.3384212521E+02    1    0
        25         1        25    1  0.0000000000E+00  0.3650000000E+03      1103    2  0.8168120000E+00  0.2864792000E+00  0.5000000000E+00  0.1408406000E+04  0.1764323960E+05 -0.2750000000E+02    1    0      1103    2  0.9036639179E+00  0.1737998064E+00  0.3590638842E+00  0.1451831959E+04  0.1758689990E+05 -0.3384212521E+02    1    0
        26         1        26    1  0.0000000000E+00  0.3650000000E+03      1104    2  0.9271016000E+00  0.9927754000E+00  0.5000000000E+00  0.1963550800E+04  0.1799638770E+05 -0.2750000000E+02    1    0      1104    2  0.9285261303E+00  0.9749328444E+00  0.3556698251E+00  0.1964263065E+04  0.1798746642E+05 -0.3399485787E+02    1    0
        27         1        27    1  0.0000000000E+00  0.3650000000E+03      1104    2  0.1349768000E+00  0.2265741000E+00  0.5000000000E+00  0.1567488400E+04  0.1761328705E+05 -0.2750000000E+02    1    0      1104    2  0.1482918558E+00  0.2219571663E+00  0.3556698251E+00  0.1574145928E+04  0.1761097858E+05 -0.3399485787E+02    1    0
        28         1        28    1  0.0000000000E+00  0.3650000000E+03      1104    2  0.2513954000E+00  0.4247076000E+00  0.5000000000E+00  0.1625697700E+04  0.1771235380E+05 -0.2750000000E+02    1    0      1104    2  0.2629629050E+00  0.4166706267E+00  0.3556698251E+00  0.1631481453E+04  0.1770833531E+05 -0.3399485787E+02    1    0
        29         1        29    1  0.0000000000E+00  0.3650000000E+03      1104    2  0.3846738000E+00  0.8112805000E+00  0.5000000000E+00  0.1692336900E+04  0.1790564025E+05 -0.2750000000E+02    1    0      1104    2  0.3942406730E+00  0.7965707803E+00  0.3556698251E+00  0.1697120337E+04  0.1789828539E+05 -0.3399485787E+02    1    0
        30         1        30    1  0.0000000000E+00  0.3650000000E+03      1104    2  0.5941920000E+00  0.4996045000E+00  0.5000000000E+00  0.1797096000E+04  0.1774980225E+05 -0.2750000000E+02    1    0      1104    2  0.6006138112E+00  0.4902747097E+00  0.3556698251E+00  0.1800306906E+04  0.1774513735E+05 -0.3399485787E+02    1    0
        31         1        31    1  0.0000000000E+00  0.3650000000E+03      1105    2  0.2596101000E+00  0.9816367000E-02  0.5000000000E+00  0.2129805050E+04  0.1750490818E+05 -0.2750000000E+02    1    0      1105    2  0.2595865449E+00  0.8313564832E-02  0.3508938352E+00  0.2129793272E+04  0.1750415678E+05 -0.3420977742E+02    1    0
        32         1        32    1  0.0000000000E+00  0.3650000000E+03      1105    2  0.2179894000E+00  0.3301601000E+00  0.5000000000E+00  0.2108994700E+04  0.1766508005E+05 -0.2750000000E+02    1    0      1105    2  0.2180229330E+00  0.3213237282E+00  0.3508938352E+00  0.2109011467E+04  0.1766066186E+05 -0.3420977742E+02    1    0
        33         1        33    1  0.0000000000E+00  0.3650000000E+03      1105    2  0.2456145000E-03  0.2970817000E+00  0.5000000000E+00  0.2000122807E+04  0.1764854085E+05 -0.2750000000E+02    1    0      1105    2  0.5778111001E-03  0.2890025859E+00  0.3508938352E+00  0.2000288906E+04  0.1764450129E+05 -0.3420977742E+02    1    0
        34         1        34    1  0.0000000000E+00  0.3650000000E+03      1105    2  0.8478158000E+00  0.5648143000E+00  0.5000000000E+00  0.2423907900E+04  0.1778240715E+05 -0.2750000000E+02    1    0      1105    2  0.8469854451E+00  0.5506060332E+00  0.3508938352E+00  0.2423492723E+04  0.1777530302E+05 -0.3420977742E+02    1    0
        35         1        35    1  0.0000000000E+00  0.3650000000E+03      1105    2  0.4194553000E+00  0.2894525000E+00  0.5000000000E+00  0.2209727650E+04  0.1764472625E+05 -0.2750000000E+02    1    0      1105    2  0.4192124966E+00  0.2815480397E+00  0.3508938352E+00  0.2209606248E+04  0.1764077402E+05 -0.3420977742E+02    1    0
        36         1        36    1  0.0000000000E+00  0.3650000000E+03      1106    2  0.2066673000E+00  0.1709041000E+00  0.5000000000E+00  0.2603333650E+04  0.1758545205E+05 -0.2750000000E+02    1    0      1106    2  0.1990659714E+00  0.1645155282E+00  0.3482401918E+00  0.2599532986E+04  0.1758225776E+05 -0.3432919137E+02    1    0
        37         1        37    1  0.0000000000E+00  0.3650000000E+03      1106    2  0.8637177000E+00  0.3803698000E+00  0.5000000000E+00  0.2931858850E+04  0.1769018490E+05 -0.2750000000E+02    1    0      1106    2  0.8352026550E+00  0.3681313949E+00  0.3482401918E+00  0.2917601328E+04  0.1768406570E+05 -0.3432919137E+02    1    0
        38         1        38    1  0.0000000000E+00  0.3650000000E+03      1106    2  0.9262140000E+00  0.1414843000E+00  0.5000000000E+00  0.2963107000E+04  0.1757074215E+05 -0.2750000000E+02    1    0      1106    2  0.8957097166E+00  0.1359173469E+00  0.3482401918E+00  0.2947854858E+04  0.1756795867E+05 -0.3432919137E+02    1    0
        39         1        39    1  0.0000000000E+00  0.3650000000E+03      1106    2  0.2413838000E-02  0.3953778000E+00  0.5000000000E+00  0.2501206919E+04  0.1769768890E+05 -0.2750000000E+02    1    0      1106    2  0.1313835519E-02  0.3827202604E+00  0.3482401918E+00  0.2500656918E+04  0.1769136013E+05 -0.3432919137E+02    1    0
        40         1        40    1  0.0000000000E+00  0.3650000000E+03      1106    2  0.3762601000E+00  0.1466610000E+00  0.5000000000E+00  0.2688130050E+04  0.1757333050E+05 -0.2750000000E+02    1    0      1106    2  0.3632606836E+00  0.1409494751E+00  0.3482401918E+00  0.2681630342E+04  0.1757047474E+05 -0.3432919137E+02    1    0
        41         1        41    1  0.0000000000E+00  0.3650000000E+03      1107    2  0.1856808000E+00  0.9081358000E+00  0.5000000000E+00  0.3092840400E+04  0.1795406790E+05 -0.2750000000E+02    1    0      1107    2  0.4371165318E-01  0.8702291406E+00  0.3451021495E+00  0.3021855827E+04  0.1793511457E+05 -0.3447040327E+02    1    0
        42         1        42    1  0.0000000000E+00  0.3650000000E+03      1107    2  0.7279827000E+00  0.1436639000E+00  0.5000000000E+00  0.3363991350E+04  0.1757183195E+05 -0.2750000000E+02    1    0      1107    2  0.2314818898E+00  0.1315388368E+00  0.3451021495E+00  0.3115740945E+04  0.1756576942E+05 -0.3447040327E+02    1    0
        43         1        43    1  0.0000000000E+00  0.3650000000E+03      1107    2  0.5494620000E+00  0.4386900000E+00  0.5000000000E+00  0.3274731000E+04  0.1771934500E+05 -0.2750000000E+02    1    0      1107    2  0.1696696887E+00  0.4166152660E+00  0.3451021495E+00  0.3084834844E+04  0.1770830763E+05 -0.3447040327E+02    1    0
        44         1        44    1  0.0000000000E+00  0.3650000000E+03      1107    2  0.1396904000E+00  0.8782909000E+00  0.5000000000E+00  0.3069845200E+04  0.1793914545E+05 -0.2750000000E+02    1    0      1107    2  0.2778762952E-01  0.8413907514E+00  0.3451021495E+00  0.3013893815E+04  0.1792069538E+05 -0.3447040327E+02    1    0
        45         1        45    1  0.0000000000E+00  0.3650000000E+03      1107    2  0.8621138000E-01  0.1102899000E+00  0.5000000000E+00  0.3043105690E+04  0.1755514495E+05 -0.2750000000E+02    1    0      1107    2  0.9270695986E-02  0.9929036543E-01  0.3451021495E+00  0.3004635348E+04  0.1754964518E+05 -0.3447040327E+02    1    0
        46         1        46    1  0.0000000000E+00  0.3650000000E+03      1128    2  0.8481722000E+00  0.9303800000E+00  0.5000000000E+00  0.1424086100E+04  0.1746519000E+05 -0.2750000000E+02    1    0      1128    2  0.9020729972E+00  0.9211403450E+00  0.3473777974E+00  0.1451036499E+04  0.1746057017E+05 -0.3436799912E+02    1    0
        47         1        47    1  0.0000000000E+00  0.3650000000E+03      1128    2  0.4278699000E+00  0.9812872000E+00  0.5000000000E+00  0.1213934950E+04  0.1749064360E+05 -0.2750000000E+02    1    0      1128    2  0.6163740787E+00  0.9716591745E+00  0.3473777974E+00  0.1308187039E+04  0.1748582959E+05 -0.3436799912E+02    1    0
        48         1        48    1  0.0000000000E+00  0.3650000000E+03      1128    2  0.7845560000E+00  0.4429145000E+00  0.5000000000E+00  0.1392278000E+04  0.1722145725E+05 -0.2750000000E+02    1    0      1128    2  0.8588301229E+00  0.4373937143E+00  0.3473777974E+00  0.1429415061E+04  0.1721869686E+05 -0.3436799912E+02    1    0
        49         1        49    1  0.0000000000E+00  0.3650000000E+03      1128    2  0.6405970000E+00  0.6298177000E+00  0.5000000000E+00  0.1320298500E+04  0.1731490885E+05 -0.2750000000E+02    1    0      1128    2  0.7609745304E+00  0.6228710317E+00  0.3473777974E+00  0.1380487265E+04  0.1731143552E+05 -0.3436799912E+02    1    0
        50         1        50    1  0.0000000000E+00  0.3650000000E+03      1128    2  0.9563908000E+00  0.4802977000E+00  0.5000000000E+00  0.1478195400E+04  0.1724014885E+05 -0.2750000000E+02    1    0      1128    2  0.9756341864E+00  0.4744917182E+00  0.3473777974E+00  0.1487817093E+04  0.1723724586E+05 -0.3436799912E+02    1    0
        51         1        51    1  0.0000000000E+00  0.3650000000E+03      1129    2  0.2480763000E+00  0.4512849000E+00  0.5000000000E+00  0.1624038150E+04  0.1722564245E+05 -0.2750000000E+02    1    0      1129    2  0.2529056183E+00  0.4507588338E+00  0.3440760966E+00  0.1626452809E+04  0.1722537942E+05 -0.3451657565E+02    1    0
        52         1        52    1  0.0000000000E+00  0.3650000000E+03      1129    2  0.6545154000E-01  0.3920069000E+00  0.5000000000E+00  0.1532725770E+04  0.1719600345E+05 -0.2750000000E+02    1    0      1129    2  0.7139441508E-01  0.3915009221E+00  0.3440760966E+00  0.1535697208E+04  0.1719575046E+05 -0.3451657565E+02    1    0
        53         1        53    1  0.0000000000E+00  0.3650000000E+03      1129    2  0.8982822000E+00  0.3889747000E-01  0.5000000000E+00  0.1949141100E+04  0.1701944874E+05 -0.2750000000E+02    1    0      1129    2  0.8991468796E+00  0.3851115467E-01  0.3440760966E+00  0.1949573440E+04  0.1701925558E+05 -0.3451657565E+02    1    0
        54         1        54    1  0.0000000000E+00  0.3650000000E+03      1129    2  0.7931553000E+00  0.2326727000E+00  0.5000000000E+00  0.1896577650E+04  0.1711633635E+05 -0.2750000000E+02    1    0      1129    2  0.7946609922E+00  0.2322207176E+00  0.3440760966E+00  0.1897330496E+04  0.1711611036E+05 -0.3451657565E+02    1    0
        55         1        55    1  0.0000000000E+00  0.3650000000E+03      1129    2  0.2047591000E+00  0.5510645000E-01  0.5000000000E+00  0.1602379550E+04  0.1702755322E+05 -0.2750000000E+02    1    0      1129    2  0.2098525455E+00  0.5471464173E-01  0.3440760966E+00  0.1604926273E+04  0.1702735732E+05 -0.3451657565E+02    1    0
        56         1        56    1  0.0000000000E+00  0.3650000000E+03      1130    2  0.9482980000E+00  0.8309448000E+00  0.5000000000E+00  0.2474149000E+04  0.1741547240E+05 -0.2750000000E+02    1    0      1130    2  0.9476527770E+00  0.8297635900E+00  0.3398096936E+00  0.2473826389E+04  0.1741488180E+05 -0.3470856379E+02    1    0
        57         1        57    1  0.0000000000E+00  0.3650000000E+03      1130    2  0.8339313000E+00  0.4752767000E+00  0.5000000000E+00  0.2416965650E+04  0.1723763835E+05 -0.2750000000E+02    1    0      1130    2  0.8333934503E+00  0.4743296469E+00  0.3398096936E+00  0.2416696725E+04  0.1723716482E+05 -0.3470856379E+02    1    0
        58         1        58    1  0.0000000000E+00  0.3650000000E+03      1130    2  0.5178960000E+00  0.6442927000E+00  0.5000000000E+00  0.2258948000E+04  0.1732214635E+05 -0.2750000000E+02    1    0      1130    2  0.5176548602E+00  0.6432343739E+00  0.3398096936E+00  0.2258827430E+04  0.1732161719E+05 -0.3470856379E+02    1    0
        59         1        59    1  0.0000000000E+00  0.3650000000E+03      1130    2  0.7824875000E+00  0.9619200000E+00  0.5000000000E+00  0.2391243750E+04  0.1748096000E+05 -0.2750000000E+02    1    0      1130    2  0.7819979483E+00  0.9606525614E+00  0.3398096936E+00  0.2390998974E+04  0.1748032628E+05 -0.3470856379E+02    1    0
        60         1        60    1  0.0000000000E+00  0.3650000000E+03      1130    2  0.6542581000E+00  0.8676083000E-02  0.5000000000E+00  0.2327129050E+04  0.1700433804E+05 -0.2750000000E+02    1    0      1130    2  0.6538889366E+00  0.8036220149E-02  0.3398096936E+00  0.2326944468E+04  0.1700401811E+05 -0.3470856379E+02    1    0
        61         1        61    1  0.0000000000E+00  0.3650000000E+03      1131    2  0.8080083000E+00  0.5793461000E+00  0.5000000000E+00  0.2904004150E+04  0.1728967305E+05 -0.2750000000E+02    1    0      1131    2  0.7858573209E+00  0.5780355545E+00  0.3366956166E+00  0.2892928660E+04  0.1728901778E+05 -0.3484869725E+02    1    0
        62         1        62    1  0.0000000000E+00  0.3650000000E+03      1131    2  0.9843265000E+00  0.5834404000E-01  0.5000000000E+00  0.2992163250E+04  0.1702917202E+05 -0.2750000000E+02    1    0      1131    2  0.9574913201E+00  0.5743908350E-01  0.3366956166E+00  0.2978745660E+04  0.1702871954E+05 -0.3484869725E+02    1    0
        63         1        63    1  0.0000000000E+00  0.3650000000E+03      1131    2  0.6988509000E+00  0.8271530000E+00  0.5000000000E+00  0.2849425450E+04  0.1741357650E+05 -0.2750000000E+02    1    0      1131    2  0.6795998778E+00  0.8256495421E+00  0.3366956166E+00  0.2839799939E+04  0.1741282477E+05 -0.3484869725E+02    1    0
        64         1        64    1  0.0000000000E+00  0.3650000000E+03      1131    2  0.8848149000E+00  0.8584169000E+00  0.5000000000E+00  0.2942407450E+04  0.1742920845E+05 -0.2750000000E+02    1    0      1131    2  0.8606234195E+00  0.8568891038E+00  0.3366956166E+00  0.2930311710E+04  0.1742844455E+05 -0.3484869725E+02    1    0
        65         1        65    1  0.0000000000E+00  0.3650000000E+03      1131    2  0.3445708000E+00  0.8819874000E+00  0.5000000000E+00  0.2672285400E+04  0.1744099370E+05 -0.2750000000E+02    1    0      1131    2  0.3347318471E+00  0.8804412547E+00  0.3366956166E+00  0.2667365924E+04  0.1744022063E+05 -0.3484869725E+02    1    0
        66         1        66    1  0.0000000000E+00  0.3650000000E+03      1132    2  0.6516618000E+00  0.6465135000E+00  0.5000000000E+00  0.3325830900E+04  0.1732325675E+05 -0.2750000000E+02    1    0      1132    2  0.2511907439E+00  0.6396936112E+00  0.3332785979E+00  0.3125595372E+04  0.1731984681E+05 -0.3500246309E+02    1    0
        67         1        67    1  0.0000000000E+00  0.3650000000E+03      1132    2  0.2523828000E+00  0.3074798000E+00  0.5000000000E+00  0.3126191400E+04  0.1715373990E+05 -0.2750000000E+02    1    0      1132    2  0.8604331993E-01  0.3012158778E+00  0.3332785979E+00  0.3043021660E+04  0.1715060794E+05 -0.3500246309E+02    1    0
        68         1        68    1  0.0000000000E+00  0.3650000000E+03      1132    2  0.1666864000E+00  0.2097157000E+00  0.5000000000E+00  0.3083343200E+04  0.1710485785E+05 -0.2750000000E+02    1    0      1132    2  0.5059808062E-01  0.2036120969E+00  0.3332785979E+00  0.3025299040E+04  0.1710180605E+05 -0.3500246309E+02    1    0
        69         1        69    1  0.0000000000E+00  0.3650000000E+03      1132    2  0.1844985000E+00  0.5087824000E+00  0.5000000000E+00  0.3092249250E+04  0.1725439120E+05 -0.2750000000E+02    1    0      1132    2  0.5796541632E-01  0.5021883704E+00  0.3332785979E+00  0.3028982708E+04  0.1725109419E+05 -0.3500246309E+02    1    0
        70         1        70    1  0.0000000000E+00  0.3650000000E+03      1132    2  0.6157557000E+00  0.6931846000E+00  0.5000000000E+00  0.3307877850E+04  0.1734659230E+05 -0.2750000000E+02    1    0      1132    2  0.2363394747E+00  0.6862881773E+00  0.3332785979E+00  0.3118169737E+04  0.1734314409E+05 -0.3500246309E+02    1    0
        71         1        71    1  0.0000000000E+00  0.3650000000E+03      1153    2  0.7353438000E+00  0.8970076000E+00  0.5000000000E+00  0.1367671900E+04  0.1694850380E+05 -0.2750000000E+02    1    0      1153    2  0.8046420970E+00  0.8948484476E+00  0.3327470265E+00  0.1402321049E+04  0.1694742422E+05 -0.3502638381E+02    1    0
        72         1        72    1  0.0000000000E+00  0.3650000000E+03      1153    2  0.1642463000E-01  0.6594475000E+00  0.5000000000E+00  0.1008212315E+04  0.1682972375E+05 -0.2750000000E+02    1    0      1153    2  0.2631220113E+00  0.6572674714E+00  0.3327470265E+00  0.1131561006E+04  0.1682863374E+05 -0.3502638381E+02    1    0
        73         1        73    1  0.0000000000E+00  0.3650000000E+03      1153    2  0.9881679000E+00  0.6859459000E-01  0.5000000000E+00  0.1494083950E+04  0.1653429730E+05 -0.2750000000E+02    1    0      1153    2  0.9950798180E+00  0.6636263856E-01  0.3327470265E+00  0.1497539909E+04  0.1653318132E+05 -0.3502638381E+02    1    0
        74         1        74    1  0.0000000000E+00  0.3650000000E+03      1153    2  0.1670258000E+00  0.6260061000E-01  0.5000000000E+00  0.1083512900E+04  0.1653130031E+05 -0.2750000000E+02    1    0      1153    2  0.3765611320E+00  0.6036813182E-01  0.3327470265E+00  0.1188280566E+04  0.1653018407E+05 -0.3502638381E+02    1    0
        75         1        75    1  0.0000000000E+00  0.3650000000E+03      1153    2  0.9751834000E+00  0.8719020000E-01  0.5000000000E+00  0.1487591700E+04  0.1654359510E+05 -0.2750000000E+02    1    0      1153    2  0.9852993478E+00  0.8495988270E-01  0.3327470265E+00  0.1492649674E+04  0.1654247994E+05 -0.3502638381E+02    1    0
        76         1        76    1  0.0000000000E+00  0.3650000000E+03      1154    2  0.6816631000E+00  0.3827825000E+00  0.5000000000E+00  0.1840831550E+04  0.1669139125E+05 -0.2750000000E+02    1    0      1154    2  0.6832352979E+00  0.3823631085E+00  0.3302244131E+00  0.1841617649E+04  0.1669118155E+05 -0.3513990141E+02    1    0
        77         1        77    1  0.0000000000E+00  0.3650000000E+03      1154    2  0.5065014000E+00  0.4668602000E+00  0.5000000000E+00  0.1753250700E+04  0.1673343010E+05 -0.2750000000E+02    1    0      1154    2  0.5088450678E+00  0.4664470992E+00  0.3302244131E+00  0.1754422534E+04  0.1673322355E+05 -0.3513990141E+02    1    0
        78         1        78    1  0.0000000000E+00  0.3650000000E+03      1154    2  0.4091100000E+00  0.4357260000E+00  0.5000000000E+00  0.1704555000E+04  0.1671786300E+05 -0.2750000000E+02    1    0      1154    2  0.4118826117E+00  0.4353105697E+00  0.3302244131E+00  0.1705941306E+04  0.1671765528E+05 -0.3513990141E+02    1    0
        79         1        79    1  0.0000000000E+00  0.3650000000E+03      1154    2  0.4292336000E+00  0.4497867000E+00  0.5000000000E+00  0.1714616800E+04  0.1672489335E+05 -0.2750000000E+02    1    0      1154    2  0.4319175807E+00  0.4493723218E+00  0.3302244131E+00  0.1715958790E+04  0.1672468616E+05 -0.3513990141E+02    1    0
        80         1        80    1  0.0000000000E+00  0.3650000000E+03      1154    2  0.8944142000E+00  0.9973147000E+00  0.5000000000E+00  0.1947207100E+04  0.1699865735E+05 -0.2750000000E+02    1    0      1154    2  0.8950493718E+00  0.9969412882E+00  0.3302244131E+00  0.1947524686E+04  0.1699847064E+05 -0.3513990141E+02    1    0
        81         1        81    1  0.0000000000E+00  0.3650000000E+03      1155    2  0.9543654000E+00  0.1879181000E+00  0.5000000000E+00  0.2477182700E+04  0.1659395905E+05 -0.2750000000E+02    1    0      1155    2  0.9539261276E+00  0.1873608998E+00  0.3273509205E+00  0.2476963064E+04  0.1659368045E+05 -0.3526920858E+02    1    0
        82         1        82    1  0.0000000000E+00  0.3650000000E+03      1155    2  0.4562097000E-01  0.8997514000E+00  0.5000000000E+00  0.2022810485E+04  0.1694987570E+05 -0.2750000000E+02    1    0      1155    2  0.4576228184E-01  0.8991265917E+00  0.3273509205E+00  0.2022881141E+04  0.1694956330E+05 -0.3526920858E+02    1    0
        83         1        83    1  0.0000000000E+00  0.3650000000E+03      1155    2  0.2444980000E-01  0.1126266000E+00  0.5000000000E+00  0.2012224900E+04  0.1655631330E+05 -0.2750000000E+02    1    0      1155    2  0.2460463781E-01  0.1120765508E+00  0.3273509205E+00  0.2012302319E+04  0.1655603828E+05 -0.3526920858E+02    1    0
        84         1        84    1  0.0000000000E+00  0.3650000000E+03      1155    2  0.4400356000E+00  0.9182569000E+00  0.5000000000E+00  0.2220017800E+04  0.1695912845E+05 -0.2750000000E+02    1    0      1155    2  0.4399249258E+00  0.9176303341E+00  0.3273509205E+00  0.2219962463E+04  0.1695881517E+05 -0.3526920858E+02    1    0
        85         1        85    1  0.0000000000E+00  0.3650000000E+03      1155    2  0.9202397000E-01  0.4051357000E+00  0.5000000000E+00  0.2046011985E+04  0.1670256785E+05 -0.2750000000E+02    1    0      1155    2  0.9213563561E-01  0.4045578690E+00  0.3273509205E+00  0.2046067818E+04  0.1670227893E+05 -0.3526920858E+02    1    0
        86         1        86    1  0.0000000000E+00  0.3650000000E+03      1156    2  0.1704339000E+00  0.7204820000E-01  0.5000000000E+00  0.2585216950E+04  0.1653602410E+05 -0.2750000000E+02    1    0      1156    2  0.1662207228E+00  0.7105730682E-01  0.3226773492E+00  0.2583110361E+04  0.1653552865E+05 -0.3547951929E+02    1    0
        87         1        87    1  0.0000000000E+00  0.3650000000E+03      1156    2  0.5013341000E+00  0.6360540000E+00  0.5000000000E+00  0.2750667050E+04  0.1681802700E+05 -0.2750000000E+02    1    0      1156    2  0.4898406762E+00  0.6351427044E+00  0.3226773492E+00  0.2744920338E+04  0.1681757135E+05 -0.3547951929E+02    1    0