MODPATH_ENDPOINT_FILE         7         2
    1      4505      4505      4505   0.0000000000E+00  0.0000000000E+00  0.0000000000E+00  0.0000000000E+00
       0       0       0       0       0    4181     324       0       0       0
         1
Contr           
END HEADER
         1         1         1    5  0.0000000000E+00  0.2250689713E+05         1    1  0.4741026000E+00  0.3845113000E+00  0.9800000000E+00  0.2370513000E+03  0.1969225565E+05  0.9508170555E+01    1    0      4806    5  0.0000000000E+00  0.8699828567E+00  0.2169187321E-01  0.2500000000E+04  0.3934991428E+04 -0.2467462190E+03    4    1
         2         1         2    5  0.0000000000E+00  0.2454986441E+05         1    1  0.5124897000E+00  0.5421393000E+00  0.9800000000E+00  0.2562448500E+03  0.1977106965E+05  0.9508170555E+01    1    0      4806    5  0.0000000000E+00  0.8917536366E+00  0.1663480831E-01  0.2500000000E+04  0.3945876818E+04 -0.2475047788E+03    4    1
         3         1         3    5  0.0000000000E+00  0.2250124133E+05         1    1  0.9677162000E+00  0.4914686000E+00  0.9800000000E+00  0.4838581000E+03  0.1974573430E+05  0.9508170555E+01    1    0      4806    5  0.1308644258E+00  0.1000000000E+01  0.3782291890E-01  0.2565432213E+04  0.4000000000E+04 -0.2443265622E+03    4    4
         4         1         4    5  0.0000000000E+00  0.3485694869E+05         1    1  0.4919408000E+00  0.8976769000E+00  0.9800000000E+00  0.2459704000E+03  0.1994883845E+05  0.9508170555E+01    1    0      4806    5  0.0000000000E+00  0.9354806791E+00  0.3382871945E-02  0.2500000000E+04  0.3967740340E+04 -0.2494925692E+03    4    1
         5         1         5    5  0.0000000000E+00  0.2002849947E+05         1    1  0.3195437000E+00  0.5558379000E-01  0.9800000000E+00  0.1597718500E+03  0.1952779190E+05  0.9508170555E+01    1    0      4806    5  0.0000000000E+00  0.7506196713E+00  0.2774386801E-01  0.2500000000E+04  0.3875309836E+04 -0.2458384198E+03    4    1
         6         1         6    6  0.0000000000E+00  0.2101549549E+04         2    1  0.4364612000E+00  0.3948296000E-01  0.9800000000E+00  0.7182306000E+03  0.1951974148E+05  0.9494505976E+01    1    0      1079    2  0.0000000000E+00  0.5869920776E+00  0.1111934160E-01  0.1500000000E+04  0.1829349604E+05 -0.4949962963E+02    2    1
         7         1         7    5  0.0000000000E+00  0.2505449756E+05         2    1  0.4305395000E+00  0.6791332000E+00  0.9800000000E+00  0.7152697500E+03  0.1983956660E+05  0.9494505976E+01    1    0      4806    5  0.2670206130E+00  0.1000000000E+01  0.3353700439E-01  0.2633510307E+04  0.4000000000E+04 -0.2449694493E+03    4    4
         8         1         8    5  0.0000000000E+00  0.2562316091E+05         2    1  0.5859483000E+00  0.7345610000E+00  0.9800000000E+00  0.7929741500E+03  0.1986728050E+05  0.9494505976E+01    1    0      4806    5  0.3119465897E+00  0.1000000000E+01  0.3070932628E-01  0.2655973295E+04  0.4000000000E+04 -0.2453936011E+03    4    4
         9         1         9    5  0.0000000000E+00  0.2839496394E+05         2    1  0.5828329000E+00  0.8275924000E+00  0.9800000000E+00  0.7914164500E+03  0.1991379620E+05  0.9494505976E+01    1    0      4806    5  0.3248141897E+00  0.1000000000E+01  0.2019153214E-01  0.2662407095E+04  0.4000000000E+04 -0.2469712702E+03    4    4
        10         1        10    5  0.0000000000E+00  0.2008870780E+05         2    1  0.9772198000E+00  0.4892543000E+00  0.9800000000E+00  0.9886099000E+03  0.1974462715E+05  0.9494505976E+01    1    0      4806    5  0.4216739566E+00  0.1000000000E+01  0.7790249329E-01  0.2710836978E+04  0.4000000000E+04 -0.2383146260E+03    4    4
        11         1        11    5  0.0000000000E+00  0.2137484875E+05         3    1  0.4700349000E-01  0.5783557000E+00  0.9800000000E+00  0.1023501745E+04  0.1978917785E+05  0.9472017745E+01    1    0      4806    5  0.4230598978E+00  0.1000000000E+01  0.6594011311E-01  0.2711529949E+04  0.4000000000E+04 -0.2401089830E+03    4    4
        12         1        12    6  0.0000000000E+00  0.1477063227E+04         3    1  0.1189046000E+00  0.9097353000E-02  0.9800000000E+00  0.1059452300E+04  0.1950454868E+05  0.9472017745E+01    1    0      1079    2  0.1962966759E+00  0.1000000000E+01  0.4961877251E+00  0.1598148338E+04  0.1850000000E+05 -0.2767155237E+02    2    4
        13         1        13    5  0.0000000000E+00  0.1716650622E+05         3    1  0.9701974000E+00  0.6519512000E+00  0.9800000000E+00  0.1485098700E+04  0.1982597560E+05  0.9472017745E+01    1    0      4806    5  0.5588104101E+00  0.1000000000E+01  0.1116383442E+00  0.2779405205E+04  0.4000000000E+04 -0.2332542484E+03    4    4
        14         1        14    5  0.0000000000E+00  0.1906588227E+05         3    1  0.3216816000E+00  0.5132977000E+00  0.9800000000E+00  0.1160840800E+04  0.1975664885E+05  0.9472017745E+01    1    0      4806    5  0.4853303335E+00  0.1000000000E+01  0.1013305341E+00  0.2742665167E+04  0.4000000000E+04 -0.2348004199E+03    4    4
        15         1        15    6  0.0000000000E+00  0.1792559894E+04         3    1  0.3090986000E+00  0.2576178000E+00  0.9800000000E+00  0.1154549300E+04  0.1962880890E+05  0.9472017745E+01    1    0      1079    2  0.4057053511E+00  0.1000000000E+01  0.2879385650E+00  0.1702852676E+04  0.1850000000E+05 -0.3704276457E+02    2    4
        16         1        16    6  0.0000000000E+00  0.7120709565E+03         4    1  0.4603733000E+00  0.5548042000E-02  0.9800000000E+00  0.1730186650E+04  0.1950277402E+05  0.9450078149E+01    1    0        54    1  0.7330058918E+00  0.1000000000E+01  0.6158668939E+00  0.1866502946E+04  0.1900000000E+05  0.3966109518E+01    2    4
        17         1        17    6  0.0000000000E+00  0.7613883647E+03         4    1  0.5298908000E+00  0.5008927000E-01  0.9800000000E+00  0.1764945400E+04  0.1952504464E+05  0.9450078149E+01    1    0        54    1  0.7992248927E+00  0.1000000000E+01  0.5273716339E+00  0.1899612446E+04  0.1900000000E+05  0.2677749646E+01    2    4
        18         1        18    6  0.0000000000E+00  0.1386902885E+04         4    1  0.2439362000E+00  0.2126377000E+00  0.9800000000E+00  0.1621968100E+04  0.1960631885E+05  0.9450078149E+01    1    0      1079    2  0.8720039354E+00  0.1000000000E+01  0.7594888381E+00  0.1936001968E+04  0.1850000000E+05 -0.1582300229E+02    2    4
        19         1        19    5  0.0000000000E+00  0.1683810879E+05         4    1  0.5017095000E+00  0.7041411000E+00  0.9800000000E+00  0.1750854750E+04  0.1985207055E+05  0.9450078149E+01    1    0      4806    5  0.6031434176E+00  0.1000000000E+01  0.1114229598E+00  0.2801571709E+04  0.4000000000E+04 -0.2332865560E+03    4    4
        20         1        20    6  0.0000000000E+00  0.2020459495E+04         4    1  0.8299664000E+00  0.6012474000E+00  0.9800000000E+00  0.1914983200E+04  0.1980062370E+05  0.9450078149E+01    1    0      1080    2  0.2705680652E+00  0.1000000000E+01  0.8707531186E-01  0.2135284033E+04  0.1850000000E+05 -0.4608161097E+02    2    4
        21         1        21    5  0.0000000000E+00  0.2060068940E+05         5    1  0.8584412000E+00  0.8702565000E+00  0.9800000000E+00  0.2429220600E+04  0.1993512825E+05  0.9440020869E+01    1    0      4806    5  0.7001936651E+00  0.1000000000E+01  0.7106113490E-01  0.2850096833E+04  0.4000000000E+04 -0.2393408298E+03    4    4
        22         1        22    5  0.0000000000E+00  0.3195517304E+05         5    1  0.5672742000E+00  0.9840739000E+00  0.9800000000E+00  0.2283637100E+04  0.1999203695E+05  0.9440020869E+01    1    0      4806    5  0.6448369596E+00  0.1000000000E+01  0.1421756683E-01  0.2822418480E+04  0.4000000000E+04 -0.2478673650E+03    4    4
        23         1        23    5  0.0000000000E+00  0.1547221146E+05         5    1  0.9268036000E+00  0.7109177000E+00  0.9800000000E+00  0.2463401800E+04  0.1985545885E+05  0.9440020869E+01    1    0      4806    5  0.7339094641E+00  0.1000000000E+01  0.1312525611E+00  0.2866954732E+04  0.4000000000E+04 -0.2303121158E+03    4    4
        24         1        24    6  0.0000000000E+00  0.6976728952E+03         5    1  0.9421033000E+00  0.4774782000E-01  0.9800000000E+00  0.2471051650E+04  0.1952387391E+05  0.9440020869E+01    1    0        55    1  0.9135877453E+00  0.1000000000E+01  0.6408976659E+00  0.2456793873E+04  0.1900000000E+05  0.4314169552E+01    2    4
        25         1        25    5  0.0000000000E+00  0.1604471424E+05         5    1  0.7517612000E+00  0.7322898000E+00  0.9800000000E+00  0.2375880600E+04  0.1986614490E+05  0.9440020869E+01    1    0      4806    5  0.7156133843E+00  0.1000000000E+01  0.1233818022E+00  0.2857806692E+04  0.4000000000E+04 -0.2314927297E+03    4    4
        26         1        26    6  0.0000000000E+00  0.1595289935E+04         6    1  0.9592531000E+00  0.6332093000E+00  0.9800000000E+00  0.2979626550E+04  0.1981660465E+05  0.9447280154E+01    1    0      1081    2  0.2271678594E+00  0.1000000000E+01  0.3717049544E+00  0.2613583930E+04  0.1850000000E+05 -0.3327327705E+02    2    4
        27         1        27    6  0.0000000000E+00  0.5454758208E+03         6    1  0.5128408000E-01  0.4485964000E-01  0.9800000000E+00  0.2525642040E+04  0.1952242982E+05  0.9447280154E+01    1    0        56    1  0.4986850703E-02  0.1000000000E+01  0.8028374064E+00  0.2502493425E+04  0.1900000000E+05  0.6675391224E+01    2    4
        28         1        28    6  0.0000000000E+00  0.7098503398E+03         6    1  0.5987018000E+00  0.2244757000E+00  0.9800000000E+00  0.2799350900E+04  0.1961223785E+05  0.9447280154E+01    1    0        56    1  0.3145150070E+00  0.1000000000E+01  0.6078608558E+00  0.2657257503E+04  0.1900000000E+05  0.3839913592E+01    2    4
        29         1        29    6  0.0000000000E+00  0.1375888980E+04         6    1  0.9300669000E+00  0.5170903000E+00  0.9800000000E+00  0.2965033450E+04  0.1975854515E+05  0.9447280154E+01    1    0      1081    2  0.2677760048E+00  0.1000000000E+01  0.5809490434E+00  0.2633888002E+04  0.1850000000E+05 -0.2385729305E+02    2    4
        30         1        30    6  0.0000000000E+00  0.7992368004E+03         6    1  0.5475777000E+00  0.3075362000E+00  0.9800000000E+00  0.2773788850E+04  0.1965376810E+05  0.9447280154E+01    1    0        56    1  0.2636282733E+00  0.1000000000E+01  0.4300632408E+00  0.2631814137E+04  0.1900000000E+05  0.1254263376E+01    2    4
        31         1        31    6  0.0000000000E+00  0.8110204882E+03         7    1  0.4947411000E+00  0.3115991000E+00  0.9800000000E+00  0.3247370550E+04  0.1965579955E+05  0.9485773646E+01    1    0        56    1  0.7933546305E+00  0.1000000000E+01  0.4004056998E+00  0.2896677315E+04  0.1900000000E+05  0.8229638476E+00    2    4
        32         1        32    6  0.0000000000E+00  0.6003186365E+03         7    1  0.7118659000E+00  0.1036136000E+00  0.9800000000E+00  0.3355932950E+04  0.1955180680E+05  0.9485773646E+01    1    0        57    1  0.3607806817E-01  0.1000000000E+01  0.7516118138E+00  0.3018039034E+04  0.1900000000E+05  0.5960756725E+01    2    4
        33         1        33    6  0.0000000000E+00  0.6139621465E+03         7    1  0.7414509000E+00  0.1187506000E+00  0.9800000000E+00  0.3370725450E+04  0.1955937530E+05  0.9485773646E+01    1    0        57    1  0.4587575895E-01  0.1000000000E+01  0.7370143794E+00  0.3022937879E+04  0.1900000000E+05  0.5747882308E+01    2    4
        34         1        34    6  0.0000000000E+00  0.1239250453E+04         7    1  0.9086423000E+00  0.4190924000E+00  0.9800000000E+00  0.3454321150E+04  0.1970954620E+05  0.9485773646E+01    1    0      1081    2  0.7188743848E+00  0.1000000000E+01  0.7305626121E+00  0.2859437192E+04  0.1850000000E+05 -0.1712468246E+02    2    4
        35         1        35    6  0.0000000000E+00  0.6641066162E+03         7    1  0.4942707000E+00  0.1725268000E+00  0.9800000000E+00  0.3247135350E+04  0.1958626340E+05  0.9485773646E+01    1    0        56    1  0.8677546288E+00  0.1000000000E+01  0.6757278484E+00  0.2933877314E+04  0.1900000000E+05  0.4826880173E+01    2    4
        36         1        36    6  0.0000000000E+00  0.1919666830E+04         8    1  0.4910874000E+00  0.7320947000E+00  0.9800000000E+00  0.3745543700E+04  0.1986604735E+05  0.9545711858E+01    1    0      1081    2  0.6288746339E+00  0.1000000000E+01  0.1104745491E+00  0.2814437317E+04  0.1850000000E+05 -0.4502864529E+02    2    4
        37         1        37    6  0.0000000000E+00  0.8912060047E+03         8    1  0.6532670000E+00  0.3258777000E+00  0.9800000000E+00  0.3826633500E+04  0.1966293885E+05  0.9545711858E+01    1    0        57    1  0.3748520460E+00  0.1000000000E+01  0.1308947080E+00  0.3187426023E+04  0.1900000000E+05 -0.3091162187E+01    2    4
        38         1        38    6  0.0000000000E+00  0.1448774726E+04         8    1  0.8459073000E+00  0.5159727000E+00  0.9800000000E+00  0.3922953650E+04  0.1975798635E+05  0.9545711858E+01    1    0      1081    2  0.9701626720E+00  0.1000000000E+01  0.4949907981E+00  0.2985081336E+04  0.1850000000E+05 -0.2772541408E+02    2    4
        39         1        39    6  0.0000000000E+00  0.1301717070E+04         8    1  0.5860984000E+00  0.4341474000E+00  0.9800000000E+00  0.3793049200E+04  0.1971707370E+05  0.9545711858E+01    1    0      1081    2  0.9542535833E+00  0.1000000000E+01  0.6568792590E+00  0.2977126792E+04  0.1850000000E+05 -0.2044043334E+02    2    4
        40         1        40    6  0.0000000000E+00  0.7092940502E+03         8    1  0.8605787000E+00  0.1220750000E+00  0.9800000000E+00  0.3930289350E+04  0.1956103750E+05  0.9545711858E+01    1    0        57    1  0.6645867783E+00  0.1000000000E+01  0.5974291495E+00  0.3332293389E+04  0.1900000000E+05  0.3712310594E+01    2    4
        41         1        41    6  0.0000000000E+00  0.1463205982E+04         9    1  0.9290876000E+00  0.3427228000E+00  0.9800000000E+00  0.4464543800E+04  0.1967136140E+05  0.9615923208E+01    1    0      1082    2  0.3511627327E+00  0.1000000000E+01  0.4704941699E+00  0.3175581366E+04  0.1850000000E+05 -0.2882776236E+02    2    4
        42         1        42    6  0.0000000000E+00  0.1321459396E+04         9    1  0.3112569000E+00  0.3676862000E+00  0.9800000000E+00  0.4155628450E+04  0.1968384310E+05  0.9615923208E+01    1    0      1082    2  0.1913780219E+00  0.1000000000E+01  0.6288712049E+00  0.3095689011E+04  0.1850000000E+05 -0.2170079578E+02    2    4
        43         1        43    6  0.0000000000E+00  0.1389888142E+04         9    1  0.6156247000E+00  0.3545335000E+00  0.9800000000E+00  0.4307812350E+04  0.1967726675E+05  0.9615923208E+01    1    0      1082    2  0.2682568283E+00  0.1000000000E+01  0.5512034666E+00  0.3134128414E+04  0.1850000000E+05 -0.2519584400E+02    2    4
        44         1        44    6  0.0000000000E+00  0.1550002736E+04         9    1  0.4976962000E+00  0.4985139000E+00  0.9800000000E+00  0.4248848100E+04  0.1974925695E+05  0.9615923208E+01    1    0      1082    2  0.1240334362E+00  0.1000000000E+01  0.3899586170E+00  0.3062016718E+04  0.1850000000E+05 -0.3245186223E+02    2    4
        45         1        45    6  0.0000000000E+00  0.8067176381E+03         9    1  0.3812042000E+00  0.8549750000E-01  0.9800000000E+00  0.4190602100E+04  0.1954274875E+05  0.9615923208E+01    1    0        57    1  0.9281332950E+00  0.1000000000E+01  0.3838681235E+00  0.3464066648E+04  0.1900000000E+05  0.5979496860E+00    2    4
        46         1        46    5  0.0000000000E+00  0.1537811201E+05        10    1  0.4521966000E+00  0.7181062000E+00  0.9800000000E+00  0.4726098300E+04  0.1985905310E+05  0.9692380965E+01    1    0      4806    5  0.1000000000E+01  0.9930151962E+00  0.1300880840E+00  0.3000000000E+04  0.3996507598E+04 -0.2304867874E+03    4    2
        47         1        47    6  0.0000000000E+00  0.1278447592E+04        10    1  0.2300825000E+00  0.5793479000E-01  0.9800000000E+00  0.4615041250E+04  0.1952896739E+05  0.9692380965E+01    1    0      1082    2  0.6430168000E+00  0.1000000000E+01  0.6268108445E+00  0.3321508400E+04  0.1850000000E+05 -0.2179351200E+02    2    4
        48         1        48    6  0.0000000000E+00  0.1835900567E+04        10    1  0.4859890000E+00  0.4909019000E+00  0.9800000000E+00  0.4742994500E+04  0.1974545095E+05  0.9692380965E+01    1    0      1082    2  0.3150152142E+00  0.1000000000E+01  0.1287269588E+00  0.3157507607E+04  0.1850000000E+05 -0.4420728685E+02    2    4
        49         1        49    5  0.0000000000E+00  0.1614023421E+05        10    1  0.9694580000E+00  0.6910238000E+00  0.9800000000E+00  0.4984729000E+04  0.1984551190E+05  0.9692380965E+01    1    0      4806    5  0.1000000000E+01  0.9597001299E+00  0.1334971723E+00  0.3000000000E+04  0.3979850065E+04 -0.2299754242E+03    4    2
        50         1        50    6  0.0000000000E+00  0.1540048379E+04        10    1  0.4413825000E-01  0.3801937000E+00  0.9800000000E+00  0.4522069125E+04  0.1969009685E+05  0.9692380965E+01    1    0      1082    2  0.3437662696E+00  0.1000000000E+01  0.3925235535E+00  0.3171883135E+04  0.1850000000E+05 -0.3233644009E+02    2    4
        51         1        51    6  0.0000000000E+00  0.1807519448E+04        11    1  0.6289786000E+00  0.8010307000E-01  0.9800000000E+00  0.5314489300E+04  0.1954005153E+05  0.9769064270E+01    1    0      1082    2  0.9631386140E+00  0.1000000000E+01  0.8252731072E-01  0.3481569307E+04  0.1850000000E+05 -0.4628627102E+02    2    4
        52         1        52    5  0.0000000000E+00  0.1428629894E+05        11    1  0.1878729000E+00  0.4831882000E+00  0.9800000000E+00  0.5093936450E+04  0.1974159410E+05  0.9769064270E+01    1    0      4806    5  0.1000000000E+01  0.9103654003E+00  0.1944927899E+00  0.3000000000E+04  0.3955182700E+04 -0.2208260815E+03    4    2
        53         1        53    5  0.0000000000E+00  0.2344240901E+05        11    1  0.7802610000E+00  0.9298002000E+00  0.9800000000E+00  0.5390130500E+04  0.1996490010E+05  0.9769064270E+01    1    0      4806    5  0.9183950519E+00  0.1000000000E+01  0.3465176268E-01  0.2959197526E+04  0.4000000000E+04 -0.2448022356E+03    4    4
        54         1        54    6  0.0000000000E+00  0.1783289452E+04        11    1  0.7095968000E+00  0.1539060000E-01  0.9800000000E+00  0.5354798400E+04  0.1950769530E+05  0.9769064270E+01    1    0      1082    2  0.1000000000E+01  0.9639587559E+00  0.9828323852E-01  0.3500000000E+04  0.1848197938E+05 -0.4557725427E+02    2    2
        55         1        55    6  0.0000000000E+00  0.1726315305E+04        11    1  0.5709510000E+00  0.1050650000E-01  0.9800000000E+00  0.5285475500E+04  0.1950525325E+05  0.9769064270E+01    1    0      1082    2  0.1000000000E+01  0.9863194601E+00  0.1438196482E+00  0.3500000000E+04  0.1849315973E+05 -0.4352811583E+02    2    2
        56         1        56    5  0.0000000000E+00  0.1554903980E+05        12    1  0.2856876000E+00  0.9344889000E-01  0.9800000000E+00  0.5642843800E+04  0.1954672444E+05  0.9842927648E+01    1    0      4806    5  0.5089925428E+00  0.4303915460E+00  0.1000000000E+01  0.2754496271E+04  0.3715195773E+04 -0.1000000000E+03    4    6
        57         1        57    5  0.0000000000E+00  0.1711172462E+05        12    1  0.4361050000E+00  0.3572250000E+00  0.9800000000E+00  0.5718052500E+04  0.1967861250E+05  0.9842927648E+01    1    0      4806    5  0.5089925428E+00  0.4303915460E+00  0.1000000000E+01  0.2754496271E+04  0.3715195773E+04 -0.1000000000E+03    4    6
        58         1        58    5  0.0000000000E+00  0.1630014999E+05        12    1  0.9434318000E+00  0.1141651000E+00  0.9800000000E+00  0.5971715900E+04  0.1955708255E+05  0.9842927648E+01    1    0      4806    5  0.5089925428E+00  0.4303915460E+00  0.1000000000E+01  0.2754496271E+04  0.3715195773E+04 -0.1000000000E+03    4    6
        59         1        59    5  0.0000000000E+00  0.1758710978E+05        12    1  0.2527048000E+00  0.6442592000E+00  0.9800000000E+00  0.5626352400E+04  0.1982212960E+05  0.9842927648E+01    1    0      4806    5  0.1000000000E+01  0.8536464910E+00  0.1236548324E+00  0.3000000000E+04  0.3926823245E+04 -0.2314517751E+03    4    2
        60         1        60    5  0.0000000000E+00  0.1902002927E+05        12    1  0.9358034000E+00  0.7180162000E+00  0.9800000000E+00  0.5967901700E+04  0.1985900810E+05  0.9842927648E+01    1    0      4806    5  0.1000000000E+01  0.8414556565E+00  0.9062790358E-01  0.3000000000E+04  0.3920727828E+04 -0.2364058145E+03    4    2
        61         1        61    5  0.0000000000E+00  0.2199235876E+05        13    1  0.6834005000E+00  0.8670881000E+00  0.9800000000E+00  0.6341700250E+04  0.1993354405E+05  0.9912690255E+01    1    0      4806    5  0.1000000000E+01  0.8958388642E+00  0.4205491095E-01  0.3000000000E+04  0.3947919432E+04 -0.2436917634E+03    4    2
        62         1        62    5  0.0000000000E+00  0.2249618498E+05        13    1  0.6512289000E-01  0.8903586000E+00  0.9800000000E+00  0.6032561445E+04  0.1994517930E+05  0.9912690255E+01    1    0      4806    5  0.1000000000E+01  0.9603169370E+00  0.3874647691E-01  0.3000000000E+04  0.3980158469E+04 -0.2441880285E+03    4    2
        63         1        63    5  0.0000000000E+00  0.1661413247E+05        13    1  0.2600959000E+00  0.1385921000E+00  0.9800000000E+00  0.6130047950E+04  0.1956929605E+05  0.9912690255E+01    1    0      4806    5  0.5089925428E+00  0.4303915460E+00  0.1000000000E+01  0.2754496271E+04  0.3715195773E+04 -0.1000000000E+03    4    6
        64         1        64    5  0.0000000000E+00  0.1855857678E+05        13    1  0.9991065000E+00  0.4878236000E+00  0.9800000000E+00  0.6499553250E+04  0.1974391180E+05  0.9912690255E+01    1    0      4806    5  0.5089925428E+00  0.4303915460E+00  0.1000000000E+01  0.2754496271E+04  0.3715195773E+04 -0.1000000000E+03    4    6
        65         1        65    5  0.0000000000E+00  0.1744803989E+05        13    1  0.3362290000E+00  0.3200285000E+00  0.9800000000E+00  0.6168114500E+04  0.1966001425E+05  0.9912690255E+01    1    0      4806    5  0.5089925428E+00  0.4303915460E+00  0.1000000000E+01  0.2754496271E+04  0.3715195773E+04 -0.1000000000E+03    4    6
        66         1        66    5  0.0000000000E+00  0.2245086576E+05        14    1  0.4680243000E+00  0.8258250000E+00  0.9800000000E+00  0.6734012150E+04  0.1991291250E+05  0.9978029698E+01    1    0      4806    5  0.5089925428E+00  0.4303915460E+00  0.1000000000E+01  0.2754496271E+04  0.3715195773E+04 -0.1000000000E+03    4    6
        67         1        67    5  0.0000000000E+00  0.1677326050E+05        14    1  0.9193243000E+00  0.1802495000E-01  0.9800000000E+00  0.6959662150E+04  0.1950901247E+05  0.9978029698E+01    1    0      4806    5  0.5089925428E+00  0.4303915460E+00  0.1000000000E+01  0.2754496271E+04  0.3715195773E+04 -0.1000000000E+03    4    6
        68         1        68    5  0.0000000000E+00  0.1897342380E+05        14    1  0.7378245000E+00  0.5613973000E+00  0.9800000000E+00  0.6868912250E+04  0.1978069865E+05  0.9978029698E+01    1    0      4806    5  0.5089925428E+00  0.4303915460E+00  0.1000000000E+01  0.2754496271E+04  0.3715195773E+04 -0.1000000000E+03    4    6
        69         1        69    5  0.0000000000E+00  0.2045689464E+05        14    1  0.2396651000E+00  0.7044820000E+00  0.9800000000E+00  0.6619832550E+04  0.1985224100E+05  0.9978029698E+01    1    0      4806    5  0.5089925428E+00  0.4303915460E+00  0.1000000000E+01  0.2754496271E+04  0.3715195773E+04 -0.1000000000E+03    4    6
        70         1        70    5  0.0000000000E+00  0.2050686073E+05        14    1  0.3813304000E+00  0.7099813000E+00  0.9800000000E+00  0.6690665200E+04  0.1985499065E+05  0.9978029698E+01    1    0      4806    5  0.5089925428E+00  0.4303915460E+00  0.1000000000E+01  0.2754496271E+04  0.3715195773E+04 -0.1000000000E+03    4    6
        71         1        71    5  0.0000000000E+00  0.2147818367E+05        15    1  0.7585948000E+00  0.8268611000E+00  0.9800000000E+00  0.7379297400E+04  0.1991343055E+05  0.1003879322E+02    1    0      4806    5  0.5089925428E+00  0.4303915460E+00  0.1000000000E+01  0.2754496271E+04  0.3715195773E+04 -0.1000000000E+03    4    6
        72         1        72    5  0.0000000000E+00  0.1813363623E+05        15    1  0.6086656000E+00  0.3707317000E+00  0.9800000000E+00  0.7304332800E+04  0.1968536585E+05  0.1003879322E+02    1    0      4806    5  0.5089925428E+00  0.4303915460E+00  0.1000000000E+01  0.2754496271E+04  0.3715195773E+04 -0.1000000000E+03    4    6
        73         1        73    5  0.0000000000E+00  0.1825360221E+05        15    1  0.6013612000E+00  0.4555991000E+00  0.9800000000E+00  0.7300680600E+04  0.1972779955E+05  0.1003879322E+02    1    0      4806    5  0.5089925428E+00  0.4303915460E+00  0.1000000000E+01  0.2754496271E+04  0.3715195773E+04 -0.1000000000E+03    4    6
        74         1        74    5  0.0000000000E+00  0.1771824155E+05        15    1  0.4379457000E+00  0.2027871000E+00  0.9800000000E+00  0.7218972850E+04  0.1960139355E+05  0.1003879322E+02    1    0      4806    5  0.5089925428E+00  0.4303915460E+00  0.1000000000E+01  0.2754496271E+04  0.3715195773E+04 -0.1000000000E+03    4    6
        75         1        75    5  0.0000000000E+00  0.5914742880E+04        15    1  0.8653560000E+00  0.4740661000E-01  0.9800000000E+00  0.7432678000E+04  0.1952370330E+05  0.1003879322E+02    1    0      4140    5  0.0000000000E+00  0.3367164217E+00  0.3323622696E+00  0.7000000000E+04  0.1716835821E+05 -0.1667637730E+03    3    1
        76         1        76    5  0.0000000000E+00  0.5818426879E+04        16    1  0.4214216000E+00  0.2810486000E+00  0.9800000000E+00  0.7710710800E+04  0.1964052430E+05  0.1009417433E+02    1    0      4140    5  0.0000000000E+00  0.4322130184E+00  0.3307630115E+00  0.7000000000E+04  0.1721610651E+05 -0.1669236989E+03    3    1
        77         1        77    5  0.0000000000E+00  0.6094090552E+04        16    1  0.4597746000E+00  0.3299634000E+00  0.9800000000E+00  0.7729887300E+04  0.1966498170E+05  0.1009417433E+02    1    0      4140    5  0.0000000000E+00  0.4133266339E+00  0.3048795825E+00  0.7000000000E+04  0.1720666332E+05 -0.1695120417E+03    3    1
        78         1        78    5  0.0000000000E+00  0.1971609535E+05        16    1  0.7726498000E+00  0.7130292000E+00  0.9800000000E+00  0.7886324900E+04  0.1985651460E+05  0.1009417433E+02    1    0      4806    5  0.5089925428E+00  0.4303915460E+00  0.1000000000E+01  0.2754496271E+04  0.3715195773E+04 -0.1000000000E+03    4    6
        79         1        79    5  0.0000000000E+00  0.8054587322E+04        16    1  0.8350878000E+00  0.5901210000E+00  0.9800000000E+00  0.7917543900E+04  0.1979506050E+05  0.1009417433E+02    1    0      4140    5  0.0000000000E+00  0.2629224940E+00  0.1660202294E+00  0.7000000000E+04  0.1713146125E+05 -0.1833979771E+03    3    1
        80         1        80    5  0.0000000000E+00  0.4624203806E+04        16    1  0.9146546000E+00  0.1910930000E+00  0.9800000000E+00  0.7957327300E+04  0.1959554650E+05  0.1009417433E+02    1    0      4140    5  0.0000000000E+00  0.6564072425E+00  0.4866199211E+00  0.7000000000E+04  0.1732820362E+05 -0.1513380079E+03    3    1
        81         1        81    5  0.0000000000E+00  0.3872831353E+04        17    1  0.2752000000E+00  0.1158581000E+00  0.9800000000E+00  0.8137600000E+04  0.1955792905E+05  0.1014191196E+02    1    0      4140    5  0.0000000000E+00  0.7948410983E+00  0.6341120959E+00  0.7000000000E+04  0.1739742055E+05 -0.1365887904E+03    3    1
        82         1        82    5  0.0000000000E+00  0.4395620503E+04        17    1  0.1674612000E+00  0.2014946000E+00  0.9800000000E+00  0.8083730600E+04  0.1960074730E+05  0.1014191196E+02    1    0      4140    5  0.0000000000E+00  0.7255756442E+00  0.5307304324E+00  0.7000000000E+04  0.1736278782E+05 -0.1469269568E+03    3    1
        83         1        83    5  0.0000000000E+00  0.5587000482E+04        17    1  0.3923140000E+00  0.4655649000E+00  0.9800000000E+00  0.8196157000E+04  0.1973278245E+05  0.1014191196E+02    1    0      4140    5  0.0000000000E+00  0.6012658785E+00  0.3480560774E+00  0.7000000000E+04  0.1730063294E+05 -0.1651943923E+03    3    1
        84         1        84    5  0.0000000000E+00  0.3657466795E+04        17    1  0.6610844000E+00  0.1758180000E-01  0.9800000000E+00  0.8330542200E+04  0.1950879090E+05  0.1014191196E+02    1    0      4140    5  0.0000000000E+00  0.9352863401E+00  0.7066715896E+00  0.7000000000E+04  0.1746764317E+05 -0.1293328410E+03    3    1
        85         1        85    5  0.0000000000E+00  0.3789193934E+04        17    1  0.4170919000E+00  0.7904200000E-01  0.9800000000E+00  0.8208545950E+04  0.1953952100E+05  0.1014191196E+02    1    0      4140    5  0.0000000000E+00  0.8482965835E+00  0.6620194954E+00  0.7000000000E+04  0.1742414829E+05 -0.1337980505E+03    3    1
        86         1        86    5  0.0000000000E+00  0.3801626241E+04        18    1  0.4678357000E-01  0.8817784000E-01  0.9800000000E+00  0.8523391785E+04  0.1954408892E+05  0.1017680653E+02    1    0      4140    5  0.0000000000E+00  0.9985182427E+00  0.6802816997E+00  0.7000000000E+04  0.1749925912E+05 -0.1319718300E+03    3    1
        87         1        87    5  0.0000000000E+00  0.4505927913E+04        18    1  0.8728751000E+00  0.2150027000E+00  0.9800000000E+00  0.8936437550E+04  0.1960750135E+05  0.1017680653E+02    1    0      4140    5  0.1067836418E-01  0.1000000000E+01  0.5161555551E+00  0.7005339182E+04  0.1750000000E+05 -0.1483844445E+03    3    4