# File generated by Flopy version 3.4.2 on 09/12/2023 at 13:55:02.
BEGIN Options
END Options

BEGIN Timing
  TDIS6  ps2.tdis
END Timing

BEGIN Models
  gwf6  ps2.nam  ps2
END Models

BEGIN Exchanges
END Exchanges

BEGIN SolutionGroup  1
  MXITER  1
  ims6  ps2.ims  ps2
END SolutionGroup  1

