# File generated by Flopy version 3.4.2 on 09/12/2023 at 13:55:02.
BEGIN GRIDDATA
  strt  LAYERED
    CONSTANT     320.00000000
    CONSTANT     320.00000000
    CONSTANT     320.00000000
END GRIDDATA

