# File generated by Flopy version 3.4.2 on 09/12/2023 at 13:55:02.
BEGIN OPTIONS
  HEAD  FILEOUT  ps2.hed
  HEAD  PRINT_FORMAT  COLUMNS  20  WIDTH  8  DIGITS  3  fixed
END OPTIONS

BEGIN PERIOD  1
  SAVE  head  all
  PRINT  budget  all
  PRINT  head  all
END PERIOD  1

