# File generated by Flopy version 3.4.2 on 09/12/2023 at 13:55:02.
BEGIN options
END options

BEGIN dimensions
  MAXBOUND  1
END dimensions

BEGIN period  1
  1 11 10  -75000.00000000
END period  1

