# File generated by Flopy version 3.4.2 on 09/15/2023 at 13:36:50.
BEGIN options
  SAVE_FLOWS
END options

BEGIN packages
  DIS6  child.dis  dis
  IC6  child.ic  ic
  NPF6  child.npf  npf
  RCH6  child.rcha  rcha_0
  RIV6  child.riv  riv_0
  OC6  child.oc  oc
END packages

