# File generated by Flopy version 3.4.2 on 09/15/2023 at 13:36:50.
BEGIN options
END options

BEGIN timing
  TDIS6  mv.tdis
END timing

BEGIN models
  gwf6  mv.nam  mv
  gwf6  child.nam  child
END models

BEGIN exchanges
  gwf6-gwf6  mv.gwfgwf  mv  child
END exchanges

BEGIN solutiongroup  1
  ims6  mv.ims  mv  child
END solutiongroup  1

