# File generated by Flopy version 3.4.2 on 09/15/2023 at 13:36:36.
BEGIN options
  READASARRAYS
END options

BEGIN period  1
  recharge
    CONSTANT       0.00364100
END period  1

