# File generated by Flopy version 3.4.2 on 09/15/2023 at 13:36:36.
BEGIN griddata
  strt
    CONSTANT      11.00000000
END griddata

