# File generated by Flopy version 3.4.2 on 09/15/2023 at 13:36:50.
BEGIN options
  COMPLEXITY  complex
END options

