# File generated by Flopy version 3.4.2 on 09/15/2023 at 13:36:50.
BEGIN options
  BUDGET  FILEOUT  mv.bud
  HEAD  FILEOUT  mv.hds
END options

BEGIN period  1
  SAVE  HEAD  ALL
  SAVE  BUDGET  ALL
END period  1

