# File generated by Flopy version 3.4.2 on 09/15/2023 at 13:36:50.
BEGIN options
END options

BEGIN dimensions
  NPER  1
END dimensions

BEGIN perioddata
       1.00000000  1       1.00000000
END perioddata

