begin options
  PRINT_INPUT
  PRINT_FLOWS
  SAVE_FLOWS
end options

begin dimensions
  MAXBOUND 105
end dimensions

begin period 1
     2         4         4        8.96  555000.  
     2         4         5        8.96  555000.  
     2         4         6        8.96  555000.  
     2         4         7        8.96  555000.  
     2         5         3        8.96  555000.  
     2         5         4        8.96  555000.  
     2         5         5        8.96  555000.  
     2         5         6        8.96  555000.  
     2         5         7        8.96  555000.  
     2         6         3        8.96  555000.  
     2         6         4        8.96  555000.  
     2         6         5        8.96  555000.  
     2         6         6        8.96  555000.  
     2         6         7        8.96  555000.  
     2         7         3        8.96  555000.  
     2         7         4        8.96  555000.  
     2         7         5        8.96  555000.  
     2         7         6        8.96  555000.  
     2         7         7        8.96  555000.  
     2         8         3        8.96  555000.  
     2         8         4        8.96  555000.  
     2         8         5        8.96  555000.  
     2         8         6        8.96  555000.  
     2         8         7        8.96  555000.  
     2         9         3        8.96  555000.  
     2         9         4        8.96  555000.  
     2         9         5        8.96  555000.  
     2         9         6        8.96  555000.  
     2         9         7        8.96  555000.  
     2        10         3        8.96  555000.  
     2        10         4        8.96  555000.  
     2        10         5        8.96  555000.  
     2        10         6        8.96  555000.  
     2        10         7        8.96  555000.  
     2        10         8        8.96  555000.  
     2        11         4        8.96  555000.  
     2        11         5        8.96  555000.  
     2        11         6        8.96  555000.  
     2        11         7        8.96  555000.  
     2        11         8        8.96  555000.  
     2        12         4        8.96  555000.  
     2        12         5        8.96  555000.  
     2        12         6        8.96  555000.  
     2        12         7        8.96  555000.  
     2        12         8        8.96  555000.  
     2        12         9        8.96  555000.  
     2        13         5        8.96  555000.  
     2        13         6        8.96  555000.  
     2        13         7        8.96  555000.  
     2        13         8        8.96  555000.  
     2        13         9        8.96  555000.  
     2        14         5        8.96  555000.  
     2        14         6        8.96  555000.  
     2        14         7        8.96  555000.  
     2        14         8        8.96  555000.  
     2        14         9        8.96  555000.  
     2        15         5        8.96  555000.  
     2        15         6        8.96  555000.  
     2        15         7        8.96  555000.  
     2        15         8        8.96  555000.  
     2        15         9        8.96  555000.  
     2        16         6        8.96  555000.  
     2        16         7        8.96  555000.  
     2        16         8        8.96  555000.  
     2        16         9        8.96  555000. 
     1         3         4        8.96    6400.  
     1         3         5        8.96    6400.  
     1         3         6        8.96    6400.  
     1         3         7        8.96    6400.  
     1         4         8        8.96    6400.  
     1         5         8        8.96    6400.  
     1         6         8        8.96    6400.  
     1         7         8        8.96    6400.  
     1         8         8        8.96    6400.  
     1         9         8        8.96    6400.  
     1         9         8        8.96    6400.  
     1        10         9        8.96    6400.  
     1        11         9        8.96    6400.  
     1        11         9        8.96    6400.  
     1        12        10        8.96    6400.  
     1        13        10        8.96    6400.  
     1        14        10        8.96    6400.  
     1        15        10        8.96    6400.  
     1        16        10        8.96    6400.  
     1        17         9        8.96    6400.  
     1        17         8        8.96    6400.  
     1        17         7        8.96    6400.  
     1        17         6        8.96    6400.  
     1        16         5        8.96    6400.  
     1        16         5        8.96    6400.  
     1        15         4        8.96    6400.  
     1        14         4        8.96    6400.  
     1        13         4        8.96    6400.  
     1        13         4        8.96    6400.  
     1        12         3        8.96    6400.  
     1        11         3        8.96    6400.  
     1        11         3        8.96    6400.  
     1        10         2        8.96    6400.  
     1         9         2        8.96    6400.  
     1         8         2        8.96    6400.  
     1         7         2        8.96    6400.  
     1         6         2        8.96    6400.  
     1         5         2        8.96    6400.  
     1         4         3        8.96    6400.  
     1         4         3        8.96    6400.  
end period
