BEGIN OPTIONS
  DIGITS 15
  PRINT_INPUT
END OPTIONS

BEGIN CONTINUOUS FILEOUT riv.obs.csv
  RIV_1   RIV  POLFORD
END CONTINUOUS