begin options
  PRINT_INPUT
  PRINT_FLOWS
  SAVE_FLOWS
end options

begin dimensions
  MAXBOUND 2
end dimensions

begin period 1
 5  6  15  -67000
 5  35 16  -268000
end period
