BEGIN OPTIONS
  HEAD FILEOUT output/at.hds
  BUDGET FILEOUT output/at.cbc
END OPTIONS

BEGIN PERIOD 1
  SAVE BUDGET all
  PRINT BUDGET LAST
  SAVE HEAD all
  PRINT HEAD LAST
END PERIOD
