# File generated by Flopy version 3.4.2 on 09/12/2023 at 13:54:47.
BEGIN options
  PRINT_FLOWS
END options

BEGIN dimensions
  MAXBOUND  11
END dimensions

BEGIN period  1
  1 15 10     322.50000000  100000.00000000
  1 15 11     322.50000000  100000.00000000
  1 15 12     322.50000000  100000.00000000
  1 15 13     322.50000000  100000.00000000
  1 15 14     322.50000000  100000.00000000
  1 15 15     322.50000000  100000.00000000
  1 15 16     322.50000000  100000.00000000
  1 15 17     322.50000000  100000.00000000
  1 15 18     322.50000000  100000.00000000
  1 15 19     322.50000000  100000.00000000
  1 15 20     322.50000000  100000.00000000
END period  1

