# File generated by Flopy version 3.4.2 on 09/12/2023 at 13:54:47.
BEGIN Options
  PRINT_OPTION  summary
  COMPLEXITY  simple
END Options

