# File generated by Flopy version 3.4.2 on 09/12/2023 at 13:54:47.
BEGIN OPTIONS
  TIME_UNITS  days
END OPTIONS

BEGIN DIMENSIONS
  NPER  1
END DIMENSIONS

BEGIN PERIODDATA
       1.00000000  1       1.00000000
END PERIODDATA

