# File generated by Flopy version 3.4.2 on 09/12/2023 at 13:50:27.
BEGIN Options
  LIST  ps2.lst
END Options

BEGIN Packages
  dis6  ps2.dis
  ic6  ps2.ic
  npf6  ps2.npf
  oc6  ps2.oc
  chd6  ps2.chd
END Packages

