# File generated by Flopy version 3.4.2 on 09/12/2023 at 13:50:27.
BEGIN options
  PRINT_INPUT
  PRINT_FLOWS
  SAVE_FLOWS
END options

BEGIN dimensions
  MAXBOUND  42
END dimensions

BEGIN period  1
  1 1 1     330.00000000
  1 2 1     330.00000000
  1 3 1     330.00000000
  1 4 1     330.00000000
  1 5 1     330.00000000
  1 6 1     330.00000000
  1 7 1     330.00000000
  1 8 1     330.00000000
  1 9 1     330.00000000
  1 10 1     330.00000000
  1 11 1     330.00000000
  1 12 1     330.00000000
  1 13 1     330.00000000
  1 14 1     330.00000000
  1 15 1     330.00000000
  1 16 1     330.00000000
  1 17 1     330.00000000
  1 18 1     330.00000000
  1 19 1     330.00000000
  1 20 1     330.00000000
  1 21 1     330.00000000  

  1 1 20     320.00000000
  1 2 20     320.00000000
  1 3 20     320.00000000
  1 4 20     320.00000000
  1 5 20     320.00000000
  1 6 20     320.00000000
  1 7 20     320.00000000
  1 8 20     320.00000000
  1 9 20     320.00000000
  1 10 20     320.00000000
  1 11 20     320.00000000
  1 12 20     320.00000000
  1 13 20     320.00000000
  1 14 20     320.00000000
  1 15 20     320.00000000
  1 16 20     320.00000000
  1 17 20     320.00000000
  1 18 20     320.00000000
  1 19 20     320.00000000
  1 20 20     320.00000000
  1 21 20     320.00000000
END period  1

