# File generated by Flopy version 3.4.2 on 09/12/2023 at 13:50:27.
BEGIN OPTIONS
  SAVE_FLOWS
END OPTIONS

BEGIN GRIDDATA
  icelltype  LAYERED
    CONSTANT  1
    CONSTANT  0
    CONSTANT  0
  k  LAYERED
    CONSTANT      50.00000000
    CONSTANT       0.01000000
    CONSTANT     200.00000000
  k33  LAYERED
    CONSTANT      10.00000000
    CONSTANT       0.01000000
    CONSTANT      20.00000000
END GRIDDATA

